*SPEF "ieee 1481-1999"
*DESIGN "netlist_0"
*DATE "15:17:24 Sunday July 21, 2024"
*VENDOR "The OpenROAD Project"
*PROGRAM "OpenROAD"
*VERSION "d423155d69de7f683a23f6916ead418a615ad4ad"
*DESIGN_FLOW "NAME_SCOPE LOCAL" "PIN_CAP NONE"
*DIVIDER /
*DELIMITER :
*BUS_DELIMITER []
*T_UNIT 1 NS
*C_UNIT 1 PF
*R_UNIT 1 OHM
*L_UNIT 1 HENRY

*NAME_MAP
*3 clk
*4 in0
*5 in1
*6 in10
*7 in11
*8 in12
*9 in13
*10 in14
*11 in15
*12 in16
*13 in17
*14 in18
*15 in19
*16 in2
*17 in20
*18 in21
*19 in22
*20 in23
*21 in24
*22 in25
*23 in26
*24 in27
*25 in28
*26 in29
*27 in3
*28 in30
*29 in31
*30 in32
*31 in33
*32 in34
*33 in35
*34 in36
*35 in37
*36 in38
*37 in39
*38 in4
*39 in40
*40 in41
*41 in42
*42 in43
*43 in44
*44 in45
*45 in46
*46 in47
*47 in48
*48 in49
*49 in5
*50 in50
*51 in51
*52 in52
*53 in53
*54 in54
*55 in55
*56 in56
*57 in57
*58 in58
*59 in59
*60 in6
*61 in60
*62 in61
*63 in7
*64 in8
*65 in9
*66 out0
*67 out1
*68 out10
*69 out11
*70 out12
*71 out13
*72 out14
*73 out15
*74 out16
*75 out17
*76 out18
*77 out19
*78 out2
*79 out20
*80 out21
*81 out22
*82 out23
*83 out24
*84 out25
*85 out26
*86 out27
*87 out28
*88 out29
*89 out3
*90 out30
*91 out31
*92 out32
*93 out33
*94 out34
*95 out35
*96 out36
*97 out37
*98 out38
*99 out39
*100 out4
*101 out40
*102 out41
*103 out42
*104 out43
*105 out44
*106 out45
*107 out46
*108 out47
*109 out48
*110 out49
*111 out5
*112 out50
*113 out51
*114 out52
*115 out53
*116 out54
*117 out55
*118 out56
*119 out57
*120 out58
*121 out59
*122 out6
*123 out60
*124 out61
*125 out7
*126 out8
*127 out9
*128 rst
*129 clknet_0_clk
*130 clknet_0_net217
*131 clknet_0_net218
*132 clknet_0_net219
*133 clknet_0_net232
*134 clknet_0_net234
*135 clknet_0_net239
*136 clknet_0_net240
*137 clknet_0_net241
*138 clknet_0_net247
*139 clknet_0_net254
*140 clknet_0_net256
*141 clknet_0_net266
*142 clknet_0_net329
*143 clknet_0_net330
*144 clknet_0_net331
*145 clknet_0_net342
*146 clknet_0_net344
*147 clknet_0_net358
*148 clknet_0_net367
*149 clknet_0_net368
*150 clknet_0_net370
*151 clknet_0_net394
*152 clknet_0_net396
*153 clknet_0_net399
*154 clknet_0_net401
*155 clknet_0_net404
*156 clknet_0_net432
*157 clknet_0_net439
*158 clknet_0_net447
*159 clknet_0_net454
*160 clknet_0_net456
*161 clknet_0_net479
*162 clknet_0_net488
*163 clknet_0_net489
*164 clknet_0_net492
*165 clknet_0_net493
*166 clknet_0_net508
*167 clknet_0_net567
*168 clknet_0_net568
*169 clknet_0_net571
*170 clknet_0_net590
*171 clknet_0_net608
*172 clknet_0_net704
*173 clknet_0_net706
*174 clknet_0_net707
*175 clknet_0_net738
*176 clknet_0_net739
*177 clknet_0_net757
*178 clknet_0_net758
*179 clknet_0_net775
*180 clknet_0_net776
*181 clknet_0_net777
*182 clknet_0_net795
*183 clknet_0_net796
*184 clknet_0_net797
*185 clknet_0_net881
*186 clknet_0_net886
*187 clknet_1_0__leaf_net217
*188 clknet_1_0__leaf_net218
*189 clknet_1_0__leaf_net219
*190 clknet_1_0__leaf_net232
*191 clknet_1_0__leaf_net234
*192 clknet_1_0__leaf_net239
*193 clknet_1_0__leaf_net240
*194 clknet_1_0__leaf_net241
*195 clknet_1_0__leaf_net247
*196 clknet_1_0__leaf_net254
*197 clknet_1_0__leaf_net256
*198 clknet_1_0__leaf_net266
*199 clknet_1_0__leaf_net329
*200 clknet_1_0__leaf_net330
*201 clknet_1_0__leaf_net331
*202 clknet_1_0__leaf_net342
*203 clknet_1_0__leaf_net344
*204 clknet_1_0__leaf_net358
*205 clknet_1_0__leaf_net367
*206 clknet_1_0__leaf_net368
*207 clknet_1_0__leaf_net370
*208 clknet_1_0__leaf_net394
*209 clknet_1_0__leaf_net396
*210 clknet_1_0__leaf_net399
*211 clknet_1_0__leaf_net401
*212 clknet_1_0__leaf_net404
*213 clknet_1_0__leaf_net432
*214 clknet_1_0__leaf_net439
*215 clknet_1_0__leaf_net447
*216 clknet_1_0__leaf_net454
*217 clknet_1_0__leaf_net456
*218 clknet_1_0__leaf_net479
*219 clknet_1_0__leaf_net488
*220 clknet_1_0__leaf_net489
*221 clknet_1_0__leaf_net492
*222 clknet_1_0__leaf_net493
*223 clknet_1_0__leaf_net508
*224 clknet_1_0__leaf_net567
*225 clknet_1_0__leaf_net568
*226 clknet_1_0__leaf_net571
*227 clknet_1_0__leaf_net590
*228 clknet_1_0__leaf_net608
*229 clknet_1_0__leaf_net704
*230 clknet_1_0__leaf_net706
*231 clknet_1_0__leaf_net707
*232 clknet_1_0__leaf_net738
*233 clknet_1_0__leaf_net739
*234 clknet_1_0__leaf_net757
*235 clknet_1_0__leaf_net758
*236 clknet_1_0__leaf_net775
*237 clknet_1_0__leaf_net776
*238 clknet_1_0__leaf_net777
*239 clknet_1_0__leaf_net795
*240 clknet_1_0__leaf_net796
*241 clknet_1_0__leaf_net797
*242 clknet_1_0__leaf_net881
*243 clknet_1_0__leaf_net886
*244 clknet_1_1__leaf_net217
*245 clknet_1_1__leaf_net218
*246 clknet_1_1__leaf_net219
*247 clknet_1_1__leaf_net232
*248 clknet_1_1__leaf_net234
*249 clknet_1_1__leaf_net239
*250 clknet_1_1__leaf_net240
*251 clknet_1_1__leaf_net241
*252 clknet_1_1__leaf_net247
*253 clknet_1_1__leaf_net254
*254 clknet_1_1__leaf_net256
*255 clknet_1_1__leaf_net266
*256 clknet_1_1__leaf_net329
*257 clknet_1_1__leaf_net330
*258 clknet_1_1__leaf_net331
*259 clknet_1_1__leaf_net342
*260 clknet_1_1__leaf_net344
*261 clknet_1_1__leaf_net358
*262 clknet_1_1__leaf_net367
*263 clknet_1_1__leaf_net368
*264 clknet_1_1__leaf_net370
*265 clknet_1_1__leaf_net394
*266 clknet_1_1__leaf_net396
*267 clknet_1_1__leaf_net399
*268 clknet_1_1__leaf_net401
*269 clknet_1_1__leaf_net404
*270 clknet_1_1__leaf_net432
*271 clknet_1_1__leaf_net439
*272 clknet_1_1__leaf_net447
*273 clknet_1_1__leaf_net454
*274 clknet_1_1__leaf_net456
*275 clknet_1_1__leaf_net479
*276 clknet_1_1__leaf_net488
*277 clknet_1_1__leaf_net489
*278 clknet_1_1__leaf_net492
*279 clknet_1_1__leaf_net493
*280 clknet_1_1__leaf_net508
*281 clknet_1_1__leaf_net567
*282 clknet_1_1__leaf_net568
*283 clknet_1_1__leaf_net571
*284 clknet_1_1__leaf_net590
*285 clknet_1_1__leaf_net608
*286 clknet_1_1__leaf_net704
*287 clknet_1_1__leaf_net706
*288 clknet_1_1__leaf_net707
*289 clknet_1_1__leaf_net738
*290 clknet_1_1__leaf_net739
*291 clknet_1_1__leaf_net757
*292 clknet_1_1__leaf_net758
*293 clknet_1_1__leaf_net775
*294 clknet_1_1__leaf_net776
*295 clknet_1_1__leaf_net777
*296 clknet_1_1__leaf_net795
*297 clknet_1_1__leaf_net796
*298 clknet_1_1__leaf_net797
*299 clknet_1_1__leaf_net881
*300 clknet_1_1__leaf_net886
*301 clknet_4_0_0_clk
*302 clknet_4_10_0_clk
*303 clknet_4_11_0_clk
*304 clknet_4_12_0_clk
*305 clknet_4_13_0_clk
*306 clknet_4_14_0_clk
*307 clknet_4_15_0_clk
*308 clknet_4_1_0_clk
*309 clknet_4_2_0_clk
*310 clknet_4_3_0_clk
*311 clknet_4_4_0_clk
*312 clknet_4_5_0_clk
*313 clknet_4_6_0_clk
*314 clknet_4_7_0_clk
*315 clknet_4_8_0_clk
*316 clknet_4_9_0_clk
*317 net0
*318 net1
*319 net10
*320 net100
*321 net1000
*322 net1001
*323 net1002
*324 net1003
*325 net1004
*326 net1005
*327 net1006
*328 net1007
*329 net1008
*330 net101
*331 net102
*332 net103
*333 net104
*334 net105
*335 net106
*336 net107
*337 net108
*338 net109
*339 net11
*340 net110
*341 net111
*342 net112
*343 net113
*344 net114
*345 net115
*346 net116
*347 net117
*348 net118
*349 net119
*350 net12
*351 net120
*352 net121
*353 net122
*354 net123
*355 net124
*356 net125
*357 net126
*358 net127
*359 net128
*360 net129
*361 net13
*362 net130
*363 net131
*364 net132
*365 net133
*366 net134
*367 net135
*368 net136
*369 net137
*370 net138
*371 net139
*372 net14
*373 net140
*374 net141
*375 net142
*376 net143
*377 net144
*378 net145
*379 net146
*380 net147
*381 net148
*382 net149
*383 net15
*384 net150
*385 net151
*386 net152
*387 net153
*388 net154
*389 net155
*390 net156
*391 net157
*392 net158
*393 net159
*394 net16
*395 net160
*396 net161
*397 net162
*398 net163
*399 net164
*400 net165
*401 net166
*402 net167
*403 net168
*404 net169
*405 net17
*406 net170
*407 net171
*408 net172
*409 net173
*410 net174
*411 net175
*412 net176
*413 net177
*414 net178
*415 net179
*416 net18
*417 net180
*418 net181
*419 net182
*420 net183
*421 net184
*422 net185
*423 net186
*424 net187
*425 net188
*426 net189
*427 net19
*428 net190
*429 net191
*430 net192
*431 net193
*432 net194
*433 net195
*434 net196
*435 net197
*436 net198
*437 net199
*438 net2
*439 net20
*440 net200
*441 net201
*442 net202
*443 net203
*444 net204
*445 net205
*446 net206
*447 net207
*448 net208
*449 net209
*450 net21
*451 net210
*452 net211
*453 net212
*454 net213
*455 net214
*456 net215
*457 net216
*458 net217
*459 net218
*460 net219
*461 net22
*462 net220
*463 net221
*464 net222
*465 net223
*466 net224
*467 net225
*468 net226
*469 net227
*470 net228
*471 net229
*472 net23
*473 net230
*474 net231
*475 net232
*476 net233
*477 net234
*478 net235
*479 net236
*480 net237
*481 net238
*482 net239
*483 net24
*484 net240
*485 net241
*486 net242
*487 net243
*488 net244
*489 net245
*490 net246
*491 net247
*492 net248
*493 net249
*494 net25
*495 net250
*496 net251
*497 net252
*498 net253
*499 net254
*500 net255
*501 net256
*502 net257
*503 net258
*504 net259
*505 net26
*506 net260
*507 net261
*508 net262
*509 net263
*510 net264
*511 net265
*512 net266
*513 net267
*514 net268
*515 net269
*516 net27
*517 net270
*518 net271
*519 net272
*520 net273
*521 net274
*522 net275
*523 net276
*524 net277
*525 net278
*526 net279
*527 net28
*528 net280
*529 net281
*530 net282
*531 net283
*532 net284
*533 net285
*534 net286
*535 net287
*536 net288
*537 net289
*538 net29
*539 net290
*540 net291
*541 net292
*542 net293
*543 net294
*544 net295
*545 net296
*546 net297
*547 net298
*548 net299
*549 net3
*550 net30
*551 net300
*552 net301
*553 net302
*554 net303
*555 net304
*556 net305
*557 net306
*558 net307
*559 net308
*560 net309
*561 net31
*562 net310
*563 net311
*564 net312
*565 net313
*566 net314
*567 net315
*568 net316
*569 net317
*570 net318
*571 net319
*572 net32
*573 net320
*574 net321
*575 net322
*576 net323
*577 net324
*578 net325
*579 net326
*580 net327
*581 net328
*582 net329
*583 net33
*584 net330
*585 net331
*586 net332
*587 net333
*588 net334
*589 net335
*590 net336
*591 net337
*592 net338
*593 net339
*594 net34
*595 net340
*596 net341
*597 net342
*598 net343
*599 net344
*600 net345
*601 net346
*602 net347
*603 net348
*604 net349
*605 net35
*606 net350
*607 net351
*608 net352
*609 net353
*610 net354
*611 net355
*612 net356
*613 net357
*614 net358
*615 net359
*616 net36
*617 net360
*618 net361
*619 net362
*620 net363
*621 net364
*622 net365
*623 net366
*624 net367
*625 net368
*626 net369
*627 net37
*628 net370
*629 net371
*630 net372
*631 net373
*632 net374
*633 net375
*634 net376
*635 net377
*636 net378
*637 net379
*638 net38
*639 net380
*640 net381
*641 net382
*642 net383
*643 net384
*644 net385
*645 net386
*646 net387
*647 net388
*648 net389
*649 net39
*650 net390
*651 net391
*652 net392
*653 net393
*654 net394
*655 net395
*656 net396
*657 net397
*658 net398
*659 net399
*660 net4
*661 net40
*662 net400
*663 net401
*664 net402
*665 net403
*666 net404
*667 net405
*668 net406
*669 net407
*670 net408
*671 net409
*672 net41
*673 net410
*674 net411
*675 net412
*676 net413
*677 net414
*678 net415
*679 net416
*680 net417
*681 net418
*682 net419
*683 net42
*684 net420
*685 net421
*686 net422
*687 net423
*688 net424
*689 net425
*690 net426
*691 net427
*692 net428
*693 net429
*694 net43
*695 net430
*696 net431
*697 net432
*698 net433
*699 net434
*700 net435
*701 net436
*702 net437
*703 net438
*704 net439
*705 net44
*706 net440
*707 net441
*708 net442
*709 net443
*710 net444
*711 net445
*712 net446
*713 net447
*714 net448
*715 net449
*716 net45
*717 net450
*718 net451
*719 net452
*720 net453
*721 net454
*722 net455
*723 net456
*724 net457
*725 net458
*726 net459
*727 net46
*728 net460
*729 net461
*730 net462
*731 net463
*732 net464
*733 net465
*734 net466
*735 net467
*736 net468
*737 net469
*738 net47
*739 net470
*740 net471
*741 net472
*742 net473
*743 net474
*744 net475
*745 net476
*746 net477
*747 net478
*748 net479
*749 net48
*750 net480
*751 net481
*752 net482
*753 net483
*754 net484
*755 net485
*756 net486
*757 net487
*758 net488
*759 net489
*760 net49
*761 net490
*762 net491
*763 net492
*764 net493
*765 net494
*766 net495
*767 net496
*768 net497
*769 net498
*770 net499
*771 net5
*772 net50
*773 net500
*774 net501
*775 net502
*776 net503
*777 net504
*778 net505
*779 net506
*780 net507
*781 net508
*782 net509
*783 net51
*784 net510
*785 net511
*786 net512
*787 net513
*788 net514
*789 net515
*790 net516
*791 net517
*792 net518
*793 net519
*794 net52
*795 net520
*796 net521
*797 net522
*798 net523
*799 net524
*800 net525
*801 net526
*802 net527
*803 net528
*804 net529
*805 net53
*806 net530
*807 net531
*808 net532
*809 net533
*810 net534
*811 net535
*812 net536
*813 net537
*814 net538
*815 net539
*816 net54
*817 net540
*818 net541
*819 net542
*820 net543
*821 net544
*822 net545
*823 net546
*824 net547
*825 net548
*826 net549
*827 net55
*828 net550
*829 net551
*830 net552
*831 net553
*832 net554
*833 net555
*834 net556
*835 net557
*836 net558
*837 net559
*838 net56
*839 net560
*840 net561
*841 net562
*842 net563
*843 net564
*844 net565
*845 net566
*846 net567
*847 net568
*848 net569
*849 net57
*850 net570
*851 net571
*852 net572
*853 net573
*854 net574
*855 net575
*856 net576
*857 net577
*858 net578
*859 net579
*860 net58
*861 net580
*862 net581
*863 net582
*864 net583
*865 net584
*866 net585
*867 net586
*868 net587
*869 net588
*870 net589
*871 net59
*872 net590
*873 net591
*874 net592
*875 net593
*876 net594
*877 net595
*878 net596
*879 net597
*880 net598
*881 net599
*882 net6
*883 net60
*884 net600
*885 net601
*886 net602
*887 net603
*888 net604
*889 net605
*890 net606
*891 net607
*892 net608
*893 net609
*894 net61
*895 net610
*896 net611
*897 net612
*898 net613
*899 net614
*900 net615
*901 net616
*902 net617
*903 net618
*904 net619
*905 net62
*906 net620
*907 net621
*908 net622
*909 net623
*910 net624
*911 net625
*912 net626
*913 net627
*914 net628
*915 net629
*916 net63
*917 net630
*918 net631
*919 net632
*920 net633
*921 net634
*922 net635
*923 net636
*924 net637
*925 net638
*926 net639
*927 net64
*928 net640
*929 net641
*930 net642
*931 net643
*932 net644
*933 net645
*934 net646
*935 net647
*936 net648
*937 net649
*938 net65
*939 net650
*940 net651
*941 net652
*942 net653
*943 net654
*944 net655
*945 net656
*946 net657
*947 net658
*948 net659
*949 net66
*950 net660
*951 net661
*952 net662
*953 net663
*954 net664
*955 net665
*956 net666
*957 net667
*958 net668
*959 net669
*960 net67
*961 net670
*962 net671
*963 net672
*964 net673
*965 net674
*966 net675
*967 net676
*968 net677
*969 net678
*970 net679
*971 net68
*972 net680
*973 net681
*974 net682
*975 net683
*976 net684
*977 net685
*978 net686
*979 net687
*980 net688
*981 net689
*982 net69
*983 net690
*984 net691
*985 net692
*986 net693
*987 net694
*988 net695
*989 net696
*990 net697
*991 net698
*992 net699
*993 net7
*994 net70
*995 net700
*996 net701
*997 net702
*998 net703
*999 net704
*1000 net705
*1001 net706
*1002 net707
*1003 net708
*1004 net709
*1005 net71
*1006 net710
*1007 net711
*1008 net712
*1009 net713
*1010 net714
*1011 net715
*1012 net716
*1013 net717
*1014 net718
*1015 net719
*1016 net72
*1017 net720
*1018 net721
*1019 net722
*1020 net723
*1021 net724
*1022 net725
*1023 net726
*1024 net727
*1025 net728
*1026 net729
*1027 net73
*1028 net730
*1029 net731
*1030 net732
*1031 net733
*1032 net734
*1033 net735
*1034 net736
*1035 net737
*1036 net738
*1037 net739
*1038 net74
*1039 net740
*1040 net741
*1041 net742
*1042 net743
*1043 net744
*1044 net745
*1045 net746
*1046 net747
*1047 net748
*1048 net749
*1049 net75
*1050 net750
*1051 net751
*1052 net752
*1053 net753
*1054 net754
*1055 net755
*1056 net756
*1057 net757
*1058 net758
*1059 net759
*1060 net76
*1061 net760
*1062 net761
*1063 net762
*1064 net763
*1065 net764
*1066 net765
*1067 net766
*1068 net767
*1069 net768
*1070 net769
*1071 net77
*1072 net770
*1073 net771
*1074 net772
*1075 net773
*1076 net774
*1077 net775
*1078 net776
*1079 net777
*1080 net778
*1081 net779
*1082 net78
*1083 net780
*1084 net781
*1085 net782
*1086 net783
*1087 net784
*1088 net785
*1089 net786
*1090 net787
*1091 net788
*1092 net789
*1093 net79
*1094 net790
*1095 net791
*1096 net792
*1097 net793
*1098 net794
*1099 net795
*1100 net796
*1101 net797
*1102 net798
*1103 net799
*1104 net8
*1105 net80
*1106 net800
*1107 net801
*1108 net802
*1109 net803
*1110 net804
*1111 net805
*1112 net806
*1113 net807
*1114 net808
*1115 net809
*1116 net81
*1117 net810
*1118 net811
*1119 net812
*1120 net813
*1121 net814
*1122 net815
*1123 net816
*1124 net817
*1125 net818
*1126 net819
*1127 net82
*1128 net820
*1129 net821
*1130 net822
*1131 net823
*1132 net824
*1133 net825
*1134 net826
*1135 net827
*1136 net828
*1137 net829
*1138 net83
*1139 net830
*1140 net831
*1141 net832
*1142 net833
*1143 net834
*1144 net835
*1145 net836
*1146 net837
*1147 net838
*1148 net839
*1149 net84
*1150 net840
*1151 net841
*1152 net842
*1153 net843
*1154 net844
*1155 net845
*1156 net846
*1157 net847
*1158 net848
*1159 net849
*1160 net85
*1161 net850
*1162 net851
*1163 net852
*1164 net853
*1165 net854
*1166 net855
*1167 net856
*1168 net857
*1169 net858
*1170 net859
*1171 net86
*1172 net860
*1173 net861
*1174 net862
*1175 net863
*1176 net864
*1177 net865
*1178 net866
*1179 net867
*1180 net868
*1181 net869
*1182 net87
*1183 net870
*1184 net871
*1185 net872
*1186 net873
*1187 net874
*1188 net875
*1189 net876
*1190 net877
*1191 net878
*1192 net879
*1193 net88
*1194 net880
*1195 net881
*1196 net882
*1197 net883
*1198 net884
*1199 net885
*1200 net886
*1201 net887
*1202 net888
*1203 net889
*1204 net89
*1205 net890
*1206 net891
*1207 net892
*1208 net893
*1209 net894
*1210 net895
*1211 net896
*1212 net897
*1213 net898
*1214 net899
*1215 net9
*1216 net90
*1217 net900
*1218 net901
*1219 net902
*1220 net903
*1221 net904
*1222 net905
*1223 net906
*1224 net907
*1225 net908
*1226 net909
*1227 net91
*1228 net910
*1229 net911
*1230 net912
*1231 net913
*1232 net914
*1233 net915
*1234 net916
*1235 net917
*1236 net918
*1237 net919
*1238 net92
*1239 net920
*1240 net921
*1241 net922
*1242 net923
*1243 net924
*1244 net925
*1245 net926
*1246 net927
*1247 net928
*1248 net929
*1249 net93
*1250 net930
*1251 net931
*1252 net932
*1253 net933
*1254 net934
*1255 net935
*1256 net936
*1257 net937
*1258 net938
*1259 net939
*1260 net94
*1261 net940
*1262 net941
*1263 net942
*1264 net943
*1265 net944
*1266 net945
*1267 net946
*1268 net947
*1269 net948
*1270 net949
*1271 net95
*1272 net950
*1273 net951
*1274 net952
*1275 net953
*1276 net954
*1277 net955
*1278 net956
*1279 net957
*1280 net958
*1281 net959
*1282 net96
*1283 net960
*1284 net961
*1285 net962
*1286 net963
*1287 net964
*1288 net965
*1289 net966
*1290 net967
*1291 net968
*1292 net969
*1293 net97
*1294 net970
*1295 net971
*1296 net972
*1297 net973
*1298 net974
*1299 net975
*1300 net976
*1301 net977
*1302 net978
*1303 net979
*1304 net98
*1305 net980
*1306 net981
*1307 net982
*1308 net983
*1309 net984
*1310 net985
*1311 net986
*1312 net987
*1313 net988
*1314 net989
*1315 net99
*1316 net990
*1317 net991
*1318 net992
*1319 net993
*1320 net994
*1321 net995
*1322 net996
*1323 net997
*1324 net998
*1325 net999
*1326 ANTENNA_1
*1327 ANTENNA_c100_X
*1328 ANTENNA_c101_B_N
*1329 ANTENNA_c101_X
*1330 ANTENNA_c102_A2
*1331 ANTENNA_c102_A3
*1332 ANTENNA_c102_S1
*1333 ANTENNA_c105_C
*1334 ANTENNA_c106_A2
*1335 ANTENNA_c106_B1
*1336 ANTENNA_c106_C1
*1337 ANTENNA_c107_A1
*1338 ANTENNA_c109_A3
*1339 ANTENNA_c109_S0
*1340 ANTENNA_c109_X
*1341 ANTENNA_c112_A
*1342 ANTENNA_c112_B
*1343 ANTENNA_c112_Y
*1344 ANTENNA_c113_A_N
*1345 ANTENNA_c113_B
*1346 ANTENNA_c114_B
*1347 ANTENNA_c115_X
*1348 ANTENNA_c116_A_N
*1349 ANTENNA_c117_A_N
*1350 ANTENNA_c119_B
*1351 ANTENNA_c123_C
*1352 ANTENNA_c124_B2
*1353 ANTENNA_c126_A2
*1354 ANTENNA_c126_B1
*1355 ANTENNA_c130_C1
*1356 ANTENNA_c131_C_N
*1357 ANTENNA_c132_A
*1358 ANTENNA_c132_B
*1359 ANTENNA_c132_Y
*1360 ANTENNA_c133_B
*1361 ANTENNA_c133_X
*1362 ANTENNA_c134_A
*1363 ANTENNA_c134_B
*1364 ANTENNA_c135_A_N
*1365 ANTENNA_c135_B
*1366 ANTENNA_c135_X
*1367 ANTENNA_c136_B_N
*1368 ANTENNA_c137_B
*1369 ANTENNA_c137_C
*1370 ANTENNA_c138_B
*1371 ANTENNA_c138_X
*1372 ANTENNA_c139_X
*1373 ANTENNA_c140_X
*1374 ANTENNA_c141_A1
*1375 ANTENNA_c141_A2
*1376 ANTENNA_c141_B1
*1377 ANTENNA_c141_B2
*1378 ANTENNA_c141_C1
*1379 ANTENNA_c142_A_N
*1380 ANTENNA_c142_B
*1381 ANTENNA_c144_B
*1382 ANTENNA_c145_A2
*1383 ANTENNA_c145_C1
*1384 ANTENNA_c146_B1
*1385 ANTENNA_c146_X
*1386 ANTENNA_c148_A
*1387 ANTENNA_c149_A3
*1388 ANTENNA_c149_S0
*1389 ANTENNA_c151_A2
*1390 ANTENNA_c152_A3
*1391 ANTENNA_c153_A
*1392 ANTENNA_c153_B
*1393 ANTENNA_c153_Y
*1394 ANTENNA_c154_B
*1395 ANTENNA_c155_A
*1396 ANTENNA_c155_Y
*1397 ANTENNA_c157_B
*1398 ANTENNA_c157_Y
*1399 ANTENNA_c158_B
*1400 ANTENNA_c158_Y
*1401 ANTENNA_c159_A
*1402 ANTENNA_c159_B
*1403 ANTENNA_c160_C_N
*1404 ANTENNA_c160_X
*1405 ANTENNA_c161_A1
*1406 ANTENNA_c161_B1
*1407 ANTENNA_c161_C1
*1408 ANTENNA_c162_B
*1409 ANTENNA_c162_C
*1410 ANTENNA_c163_Y
*1411 ANTENNA_c164_A
*1412 ANTENNA_c165_A2
*1413 ANTENNA_c165_S0
*1414 ANTENNA_c166_B
*1415 ANTENNA_c166_C
*1416 ANTENNA_c167_B1
*1417 ANTENNA_c167_B2
*1418 ANTENNA_c167_C1
*1419 ANTENNA_c168_C
*1420 ANTENNA_c168_Y
*1421 ANTENNA_c170_A1
*1422 ANTENNA_c170_A3
*1423 ANTENNA_c170_S0
*1424 ANTENNA_c171_B
*1425 ANTENNA_c172_A3
*1426 ANTENNA_c172_S0
*1427 ANTENNA_c173_S1
*1428 ANTENNA_c174_A2
*1429 ANTENNA_c174_B1
*1430 ANTENNA_c174_B2
*1431 ANTENNA_c174_C1
*1432 ANTENNA_c174_X
*1433 ANTENNA_c175_A0
*1434 ANTENNA_c175_X
*1435 ANTENNA_c176_A_N
*1436 ANTENNA_c176_B
*1437 ANTENNA_c178_A
*1438 ANTENNA_c179_C
*1439 ANTENNA_c184_B
*1440 ANTENNA_c186_C1
*1441 ANTENNA_c189_C
*1442 ANTENNA_c190_A1
*1443 ANTENNA_c191_A1
*1444 ANTENNA_c192_B2
*1445 ANTENNA_c192_Y
*1446 ANTENNA_c194_A2
*1447 ANTENNA_c194_X
*1448 ANTENNA_c195_B1
*1449 ANTENNA_c196_A2
*1450 ANTENNA_c197_A1
*1451 ANTENNA_c198_C1
*1452 ANTENNA_c199_B
*1453 ANTENNA_c200_A1
*1454 ANTENNA_c200_A2
*1455 ANTENNA_c200_A3
*1456 ANTENNA_c201_B
*1457 ANTENNA_c202_B
*1458 ANTENNA_c203_C1
*1459 ANTENNA_c204_B
*1460 ANTENNA_c204_C
*1461 ANTENNA_c204_X
*1462 ANTENNA_c205_A2
*1463 ANTENNA_c205_S1
*1464 ANTENNA_c207_A
*1465 ANTENNA_c207_B
*1466 ANTENNA_c207_C
*1467 ANTENNA_c208_C
*1468 ANTENNA_c209_A1
*1469 ANTENNA_c209_B1
*1470 ANTENNA_c210_X
*1471 ANTENNA_c211_B
*1472 ANTENNA_c211_C
*1473 ANTENNA_c212_A3
*1474 ANTENNA_c213_A1
*1475 ANTENNA_c213_S0
*1476 ANTENNA_c213_X
*1477 ANTENNA_c214_A2
*1478 ANTENNA_c214_X
*1479 ANTENNA_c215_A1
*1480 ANTENNA_c215_S1
*1481 ANTENNA_c216_A1
*1482 ANTENNA_c216_A2
*1483 ANTENNA_c216_A3
*1484 ANTENNA_c216_S0
*1485 ANTENNA_c217_S0
*1486 ANTENNA_c217_S1
*1487 ANTENNA_c218_A0
*1488 ANTENNA_c219_A2
*1489 ANTENNA_c219_A3
*1490 ANTENNA_c219_X
*1491 ANTENNA_c220_A_N
*1492 ANTENNA_c220_B
*1493 ANTENNA_c221_B
*1494 ANTENNA_c221_X
*1495 ANTENNA_c222_A
*1496 ANTENNA_c223_A
*1497 ANTENNA_c224_A
*1498 ANTENNA_c224_B
*1499 ANTENNA_c224_C
*1500 ANTENNA_c225_A
*1501 ANTENNA_c225_Y
*1502 ANTENNA_c226_X
*1503 ANTENNA_c230_A2
*1504 ANTENNA_c230_A3
*1505 ANTENNA_c230_S0
*1506 ANTENNA_c231_A2
*1507 ANTENNA_c231_B1
*1508 ANTENNA_c231_C1
*1509 ANTENNA_c232_A2
*1510 ANTENNA_c232_B1
*1511 ANTENNA_c232_C1
*1512 ANTENNA_c232_Y
*1513 ANTENNA_c233_A1
*1514 ANTENNA_c233_A2
*1515 ANTENNA_c233_B1
*1516 ANTENNA_c236_C
*1517 ANTENNA_c238_Q_N
*1518 ANTENNA_c238_RESET_B
*1519 ANTENNA_c238_SCD
*1520 ANTENNA_c238_SET_B
*1521 ANTENNA_c239_A2
*1522 ANTENNA_c239_C1
*1523 ANTENNA_c240_A1
*1524 ANTENNA_c240_C1
*1525 ANTENNA_c241_A2
*1526 ANTENNA_c241_A3
*1527 ANTENNA_c241_S0
*1528 ANTENNA_c241_X
*1529 ANTENNA_c242_A1
*1530 ANTENNA_c242_A2
*1531 ANTENNA_c242_B1
*1532 ANTENNA_c242_C1
*1533 ANTENNA_c243_A2
*1534 ANTENNA_c243_B1
*1535 ANTENNA_c243_C1
*1536 ANTENNA_c244_B1_N
*1537 ANTENNA_c245_A1
*1538 ANTENNA_c245_C1
*1539 ANTENNA_c246_B1
*1540 ANTENNA_c248_A1
*1541 ANTENNA_c248_A2
*1542 ANTENNA_c249_A0
*1543 ANTENNA_c249_A1
*1544 ANTENNA_c249_S0
*1545 ANTENNA_c249_S1
*1546 ANTENNA_c250_SCD
*1547 ANTENNA_c251_CLK
*1548 ANTENNA_c251_RESET_B
*1549 ANTENNA_c252_A1
*1550 ANTENNA_c252_A2
*1551 ANTENNA_c253_A1
*1552 ANTENNA_c255_A1
*1553 ANTENNA_c255_A2
*1554 ANTENNA_c255_B1
*1555 ANTENNA_c258_B1
*1556 ANTENNA_c258_C1
*1557 ANTENNA_c259_A2
*1558 ANTENNA_c260_A0
*1559 ANTENNA_c260_A1
*1560 ANTENNA_c260_A2
*1561 ANTENNA_c261_A2
*1562 ANTENNA_c261_B2
*1563 ANTENNA_c262_A3
*1564 ANTENNA_c263_A3
*1565 ANTENNA_c263_S0
*1566 ANTENNA_c264_A0
*1567 ANTENNA_c264_S
*1568 ANTENNA_c265_A0
*1569 ANTENNA_c265_A1
*1570 ANTENNA_c266_B
*1571 ANTENNA_c269_A1
*1572 ANTENNA_c269_A2
*1573 ANTENNA_c269_X
*1574 ANTENNA_c270_A0
*1575 ANTENNA_c271_A1
*1576 ANTENNA_c273_B1_N
*1577 ANTENNA_c273_X
*1578 ANTENNA_c274_B1_N
*1579 ANTENNA_c275_B2
*1580 ANTENNA_c276_A2
*1581 ANTENNA_c277_A
*1582 ANTENNA_c278_B
*1583 ANTENNA_c280_B
*1584 ANTENNA_c280_Y
*1585 ANTENNA_c281_A2
*1586 ANTENNA_c281_B1
*1587 ANTENNA_c282_B
*1588 ANTENNA_c283_B1_N
*1589 ANTENNA_c283_X
*1590 ANTENNA_c284_B1_N
*1591 ANTENNA_c285_B
*1592 ANTENNA_c288_A
*1593 ANTENNA_c288_B_N
*1594 ANTENNA_c288_Y
*1595 ANTENNA_c290_B_N
*1596 ANTENNA_c292_A
*1597 ANTENNA_c294_A2
*1598 ANTENNA_c296_A2
*1599 ANTENNA_c296_B1_N
*1600 ANTENNA_c297_S1
*1601 ANTENNA_c298_B1
*1602 ANTENNA_c299_A1
*1603 ANTENNA_c299_B1
*1604 ANTENNA_c300_A1
*1605 ANTENNA_c301_A3
*1606 ANTENNA_c301_S0
*1607 ANTENNA_c301_S1
*1608 ANTENNA_c302_A1
*1609 ANTENNA_c302_A3
*1610 ANTENNA_c302_S0
*1611 ANTENNA_c302_S1
*1612 ANTENNA_c305_A1
*1613 ANTENNA_c305_S1
*1614 ANTENNA_c306_A3
*1615 ANTENNA_c307_A1
*1616 ANTENNA_c307_S0
*1617 ANTENNA_c309_A1
*1618 ANTENNA_c309_B1
*1619 ANTENNA_c309_C1
*1620 ANTENNA_c310_A2
*1621 ANTENNA_c312_B
*1622 ANTENNA_c313_Y
*1623 ANTENNA_c314_B1
*1624 ANTENNA_c315_B1
*1625 ANTENNA_c316_A2
*1626 ANTENNA_c318_Y
*1627 ANTENNA_c319_B1
*1628 ANTENNA_c319_X
*1629 ANTENNA_c320_A1
*1630 ANTENNA_c320_S
*1631 ANTENNA_c320_X
*1632 ANTENNA_c321_A2
*1633 ANTENNA_c321_B1_N
*1634 ANTENNA_c323_B1
*1635 ANTENNA_c324_B
*1636 ANTENNA_c325_A2
*1637 ANTENNA_c325_B1
*1638 ANTENNA_c325_C1
*1639 ANTENNA_c326_A2
*1640 ANTENNA_c326_B2
*1641 ANTENNA_c326_C1
*1642 ANTENNA_c327_A
*1643 ANTENNA_c328_X
*1644 ANTENNA_c329_A0
*1645 ANTENNA_c329_A1
*1646 ANTENNA_c329_A3
*1647 ANTENNA_c329_S0
*1648 ANTENNA_c331_B1
*1649 ANTENNA_c332_A2
*1650 ANTENNA_c332_A3
*1651 ANTENNA_c332_S0
*1652 ANTENNA_c332_S1
*1653 ANTENNA_c333_S
*1654 ANTENNA_c334_B1_N
*1655 ANTENNA_c335_A2
*1656 ANTENNA_c335_B1
*1657 ANTENNA_c336_A1
*1658 ANTENNA_c336_A2
*1659 ANTENNA_c336_B1
*1660 ANTENNA_c337_Y
*1661 ANTENNA_c338_CLK
*1662 ANTENNA_c338_SCE
*1663 ANTENNA_c339_A2
*1664 ANTENNA_c339_B1
*1665 ANTENNA_c339_C1
*1666 ANTENNA_c339_X
*1667 ANTENNA_c340_A2
*1668 ANTENNA_c340_A3
*1669 ANTENNA_c340_S0
*1670 ANTENNA_c342_A2
*1671 ANTENNA_c342_B2
*1672 ANTENNA_c342_C1
*1673 ANTENNA_c343_A2
*1674 ANTENNA_c345_CLK_N
*1675 ANTENNA_c345_Q
*1676 ANTENNA_c345_Q_N
*1677 ANTENNA_c345_SCD
*1678 ANTENNA_c345_SCE
*1679 ANTENNA_c346_CLK
*1680 ANTENNA_c346_RESET_B
*1681 ANTENNA_c346_SCE
*1682 ANTENNA_c347_A2
*1683 ANTENNA_c347_B1
*1684 ANTENNA_c347_C1
*1685 ANTENNA_c348_A2
*1686 ANTENNA_c350_A3
*1687 ANTENNA_c350_S0
*1688 ANTENNA_c351_A1
*1689 ANTENNA_c351_A2
*1690 ANTENNA_c352_B_N
*1691 ANTENNA_c353_A
*1692 ANTENNA_c353_B_N
*1693 ANTENNA_c353_Y
*1694 ANTENNA_c355_B
*1695 ANTENNA_c356_A
*1696 ANTENNA_c356_B
*1697 ANTENNA_c357_B
*1698 ANTENNA_c358_A1
*1699 ANTENNA_c358_A2
*1700 ANTENNA_c358_A3
*1701 ANTENNA_c358_S1
*1702 ANTENNA_c361_Y
*1703 ANTENNA_c362_A
*1704 ANTENNA_c363_B_N
*1705 ANTENNA_c364_S0
*1706 ANTENNA_c364_S1
*1707 ANTENNA_c365_A3
*1708 ANTENNA_c365_S0
*1709 ANTENNA_c365_S1
*1710 ANTENNA_c366_A3
*1711 ANTENNA_c367_A
*1712 ANTENNA_c368_A0
*1713 ANTENNA_c369_B
*1714 ANTENNA_c370_A0
*1715 ANTENNA_c370_A2
*1716 ANTENNA_c371_A
*1717 ANTENNA_c371_X
*1718 ANTENNA_c372_A0
*1719 ANTENNA_c372_A3
*1720 ANTENNA_c373_A2
*1721 ANTENNA_c373_A3
*1722 ANTENNA_c373_S0
*1723 ANTENNA_c373_X
*1724 ANTENNA_c392_A1
*1725 ANTENNA_c392_A3
*1726 ANTENNA_c392_S0
*1727 ANTENNA_c393_A1
*1728 ANTENNA_c393_A3
*1729 ANTENNA_c393_S1
*1730 ANTENNA_c395_A1
*1731 ANTENNA_c395_A3
*1732 ANTENNA_c396_A
*1733 ANTENNA_c399_B
*1734 ANTENNA_c400_A1
*1735 ANTENNA_c401_B
*1736 ANTENNA_c401_Y
*1737 ANTENNA_c402_A0
*1738 ANTENNA_c402_A1
*1739 ANTENNA_c402_A2
*1740 ANTENNA_c402_S1
*1741 ANTENNA_c403_B
*1742 ANTENNA_c403_Y
*1743 ANTENNA_c404_Y
*1744 ANTENNA_c405_A1
*1745 ANTENNA_c405_A2
*1746 ANTENNA_c405_B1_N
*1747 ANTENNA_c407_A1
*1748 ANTENNA_c407_C1
*1749 ANTENNA_c408_X
*1750 ANTENNA_c409_CLK_N
*1751 ANTENNA_c409_D
*1752 ANTENNA_c409_RESET_B
*1753 ANTENNA_c411_A1
*1754 ANTENNA_c411_A2
*1755 ANTENNA_c412_A2
*1756 ANTENNA_c414_C1
*1757 ANTENNA_c414_X
*1758 ANTENNA_c415_A3
*1759 ANTENNA_c416_A1
*1760 ANTENNA_c416_A3
*1761 ANTENNA_c417_S1
*1762 ANTENNA_c417_X
*1763 ANTENNA_c419_A2
*1764 ANTENNA_c419_B1
*1765 ANTENNA_c420_A
*1766 ANTENNA_c420_X
*1767 ANTENNA_c421_A2
*1768 ANTENNA_c422_A
*1769 ANTENNA_c422_B
*1770 ANTENNA_c426_B
*1771 ANTENNA_c427_A1
*1772 ANTENNA_c427_A2
*1773 ANTENNA_c427_A3
*1774 ANTENNA_c427_S0
*1775 ANTENNA_c428_B1
*1776 ANTENNA_c429_CLK_N
*1777 ANTENNA_c429_Q_N
*1778 ANTENNA_c429_RESET_B
*1779 ANTENNA_c430_CLK
*1780 ANTENNA_c430_D
*1781 ANTENNA_c431_A
*1782 ANTENNA_c431_B
*1783 ANTENNA_c432_A2
*1784 ANTENNA_c432_B2
*1785 ANTENNA_c433_A2
*1786 ANTENNA_c433_C1
*1787 ANTENNA_c434_A2
*1788 ANTENNA_c434_X
*1789 ANTENNA_c435_A1
*1790 ANTENNA_c435_S0
*1791 ANTENNA_c436_A2
*1792 ANTENNA_c437_A0
*1793 ANTENNA_c437_A2
*1794 ANTENNA_c437_A3
*1795 ANTENNA_c439_A2
*1796 ANTENNA_c440_A_N
*1797 ANTENNA_c441_CLK
*1798 ANTENNA_c441_D
*1799 ANTENNA_c441_SCD
*1800 ANTENNA_c442_A1
*1801 ANTENNA_c443_A1
*1802 ANTENNA_c443_A2
*1803 ANTENNA_c443_S0
*1804 ANTENNA_c443_S1
*1805 ANTENNA_c444_X
*1806 ANTENNA_c445_B1
*1807 ANTENNA_c448_B1_N
*1808 ANTENNA_c449_A1
*1809 ANTENNA_c449_B1
*1810 ANTENNA_c449_C1
*1811 ANTENNA_c450_CLK
*1812 ANTENNA_c450_Q
*1813 ANTENNA_c450_SCE
*1814 ANTENNA_c451_A1
*1815 ANTENNA_c451_A2
*1816 ANTENNA_c454_CLK
*1817 ANTENNA_c454_RESET_B
*1818 ANTENNA_c454_SET_B
*1819 ANTENNA_c455_A3
*1820 ANTENNA_c456_SCE
*1821 ANTENNA_c456_SET_B
*1822 ANTENNA_c457_A1
*1823 ANTENNA_c457_A2
*1824 ANTENNA_c457_A3
*1825 ANTENNA_c458_A3
*1826 ANTENNA_c458_S0
*1827 ANTENNA_c459_A1
*1828 ANTENNA_c460_B1
*1829 ANTENNA_c461_A0
*1830 ANTENNA_c461_A2
*1831 ANTENNA_c461_A3
*1832 ANTENNA_c462_A2
*1833 ANTENNA_c462_B1
*1834 ANTENNA_c465_A2
*1835 ANTENNA_c466_CLK_N
*1836 ANTENNA_c466_D
*1837 ANTENNA_c466_SCD
*1838 ANTENNA_c466_SET_B