*SPEF "ieee 1481-1999"
*DESIGN "netlist_0"
*DATE "22:47:31 Saturday July 20, 2024"
*VENDOR "The OpenROAD Project"
*PROGRAM "OpenROAD"
*VERSION "d423155d69de7f683a23f6916ead418a615ad4ad"
*DESIGN_FLOW "NAME_SCOPE LOCAL" "PIN_CAP NONE"
*DIVIDER /
*DELIMITER :
*BUS_DELIMITER []
*T_UNIT 1 NS
*C_UNIT 1 PF
*R_UNIT 1 OHM
*L_UNIT 1 HENRY

*NAME_MAP
*3 clk
*4 in0
*5 in1
*6 in10
*7 in11
*8 in12
*9 in13
*10 in14
*11 in15
*12 in16
*13 in17
*14 in18
*15 in19
*16 in2
*17 in20
*18 in21
*19 in22
*20 in23
*21 in24
*22 in25
*23 in26
*24 in27
*25 in28
*26 in29
*27 in3
*28 in30
*29 in31
*30 in32
*31 in33
*32 in34
*33 in35
*34 in36
*35 in37
*36 in38
*37 in39
*38 in4
*39 in40
*40 in41
*41 in42
*42 in43
*43 in44
*44 in45
*45 in46
*46 in47
*47 in48
*48 in49
*49 in5
*50 in50
*51 in51
*52 in52
*53 in53
*54 in54
*55 in55
*56 in56
*57 in57
*58 in58
*59 in59
*60 in6
*61 in60
*62 in61
*63 in7
*64 in8
*65 in9
*66 out0
*67 out1
*68 out10
*69 out11
*70 out12
*71 out13
*72 out14
*73 out15
*74 out16
*75 out17
*76 out18
*77 out19
*78 out2
*79 out20
*80 out21
*81 out22
*82 out23
*83 out24
*84 out25
*85 out26
*86 out27
*87 out28
*88 out29
*89 out3
*90 out30
*91 out31
*92 out32
*93 out33
*94 out34
*95 out35
*96 out36
*97 out37
*98 out38
*99 out39
*100 out4
*101 out40
*102 out41
*103 out42
*104 out43
*105 out44
*106 out45
*107 out46
*108 out47
*109 out48
*110 out49
*111 out5
*112 out50
*113 out51
*114 out52
*115 out53
*116 out54
*117 out55
*118 out56
*119 out57
*120 out58
*121 out59
*122 out6
*123 out60
*124 out61
*125 out7
*126 out8
*127 out9
*128 rst
*129 clknet_0_clk
*130 clknet_0_net169
*131 clknet_0_net172
*132 clknet_0_net199
*133 clknet_0_net266
*134 clknet_0_net292
*135 clknet_0_net300
*136 clknet_0_net301
*137 clknet_0_net302
*138 clknet_0_net307
*139 clknet_0_net308
*140 clknet_0_net316
*141 clknet_0_net355
*142 clknet_0_net356
*143 clknet_0_net365
*144 clknet_0_net367
*145 clknet_0_net368
*146 clknet_0_net379
*147 clknet_0_net386
*148 clknet_0_net394
*149 clknet_0_net401
*150 clknet_0_net403
*151 clknet_0_net413
*152 clknet_0_net414
*153 clknet_0_net415
*154 clknet_0_net417
*155 clknet_0_net419
*156 clknet_0_net422
*157 clknet_0_net423
*158 clknet_0_net424
*159 clknet_0_net425
*160 clknet_0_net478
*161 clknet_0_net494
*162 clknet_0_net500
*163 clknet_0_net507
*164 clknet_0_net511
*165 clknet_0_net533
*166 clknet_0_net538
*167 clknet_0_net558
*168 clknet_0_net567
*169 clknet_0_net574
*170 clknet_0_net575
*171 clknet_0_net577
*172 clknet_0_net587
*173 clknet_0_net596
*174 clknet_0_net600
*175 clknet_0_net603
*176 clknet_0_net604
*177 clknet_0_net617
*178 clknet_0_net633
*179 clknet_0_net643
*180 clknet_0_net755
*181 clknet_0_net784
*182 clknet_0_net785
*183 clknet_0_net795
*184 clknet_0_net796
*185 clknet_0_net814
*186 clknet_0_net815
*187 clknet_0_net816
*188 clknet_0_net890
*189 clknet_0_net892
*190 clknet_0_net900
*191 clknet_0_net902
*192 clknet_0_net903
*193 clknet_0_net906
*194 clknet_0_net914
*195 clknet_0_net917
*196 clknet_0_net921
*197 clknet_0_net924
*198 clknet_0_net929
*199 clknet_1_0__leaf_net169
*200 clknet_1_0__leaf_net172
*201 clknet_1_0__leaf_net199
*202 clknet_1_0__leaf_net266
*203 clknet_1_0__leaf_net292
*204 clknet_1_0__leaf_net300
*205 clknet_1_0__leaf_net301
*206 clknet_1_0__leaf_net302
*207 clknet_1_0__leaf_net307
*208 clknet_1_0__leaf_net308
*209 clknet_1_0__leaf_net316
*210 clknet_1_0__leaf_net355
*211 clknet_1_0__leaf_net356
*212 clknet_1_0__leaf_net365
*213 clknet_1_0__leaf_net367
*214 clknet_1_0__leaf_net368
*215 clknet_1_0__leaf_net379
*216 clknet_1_0__leaf_net386
*217 clknet_1_0__leaf_net394
*218 clknet_1_0__leaf_net401
*219 clknet_1_0__leaf_net403
*220 clknet_1_0__leaf_net413
*221 clknet_1_0__leaf_net414
*222 clknet_1_0__leaf_net415
*223 clknet_1_0__leaf_net417
*224 clknet_1_0__leaf_net419
*225 clknet_1_0__leaf_net422
*226 clknet_1_0__leaf_net423
*227 clknet_1_0__leaf_net424
*228 clknet_1_0__leaf_net425
*229 clknet_1_0__leaf_net478
*230 clknet_1_0__leaf_net494
*231 clknet_1_0__leaf_net500
*232 clknet_1_0__leaf_net507
*233 clknet_1_0__leaf_net511
*234 clknet_1_0__leaf_net533
*235 clknet_1_0__leaf_net538
*236 clknet_1_0__leaf_net558
*237 clknet_1_0__leaf_net567
*238 clknet_1_0__leaf_net574
*239 clknet_1_0__leaf_net575
*240 clknet_1_0__leaf_net577
*241 clknet_1_0__leaf_net587
*242 clknet_1_0__leaf_net596
*243 clknet_1_0__leaf_net600
*244 clknet_1_0__leaf_net603
*245 clknet_1_0__leaf_net604
*246 clknet_1_0__leaf_net617
*247 clknet_1_0__leaf_net633
*248 clknet_1_0__leaf_net643
*249 clknet_1_0__leaf_net755
*250 clknet_1_0__leaf_net784
*251 clknet_1_0__leaf_net785
*252 clknet_1_0__leaf_net795
*253 clknet_1_0__leaf_net796
*254 clknet_1_0__leaf_net814
*255 clknet_1_0__leaf_net815
*256 clknet_1_0__leaf_net816
*257 clknet_1_0__leaf_net890
*258 clknet_1_0__leaf_net892
*259 clknet_1_0__leaf_net900
*260 clknet_1_0__leaf_net902
*261 clknet_1_0__leaf_net903
*262 clknet_1_0__leaf_net906
*263 clknet_1_0__leaf_net914
*264 clknet_1_0__leaf_net917
*265 clknet_1_0__leaf_net921
*266 clknet_1_0__leaf_net924
*267 clknet_1_0__leaf_net929
*268 clknet_1_1__leaf_net169
*269 clknet_1_1__leaf_net172
*270 clknet_1_1__leaf_net199
*271 clknet_1_1__leaf_net266
*272 clknet_1_1__leaf_net292
*273 clknet_1_1__leaf_net300
*274 clknet_1_1__leaf_net301
*275 clknet_1_1__leaf_net302
*276 clknet_1_1__leaf_net307
*277 clknet_1_1__leaf_net308
*278 clknet_1_1__leaf_net316
*279 clknet_1_1__leaf_net355
*280 clknet_1_1__leaf_net356
*281 clknet_1_1__leaf_net365
*282 clknet_1_1__leaf_net367
*283 clknet_1_1__leaf_net368
*284 clknet_1_1__leaf_net379
*285 clknet_1_1__leaf_net386
*286 clknet_1_1__leaf_net394
*287 clknet_1_1__leaf_net401
*288 clknet_1_1__leaf_net403
*289 clknet_1_1__leaf_net413
*290 clknet_1_1__leaf_net414
*291 clknet_1_1__leaf_net415
*292 clknet_1_1__leaf_net417
*293 clknet_1_1__leaf_net419
*294 clknet_1_1__leaf_net422
*295 clknet_1_1__leaf_net423
*296 clknet_1_1__leaf_net424
*297 clknet_1_1__leaf_net425
*298 clknet_1_1__leaf_net478
*299 clknet_1_1__leaf_net494
*300 clknet_1_1__leaf_net500
*301 clknet_1_1__leaf_net507
*302 clknet_1_1__leaf_net511
*303 clknet_1_1__leaf_net533
*304 clknet_1_1__leaf_net538
*305 clknet_1_1__leaf_net558
*306 clknet_1_1__leaf_net567
*307 clknet_1_1__leaf_net574
*308 clknet_1_1__leaf_net575
*309 clknet_1_1__leaf_net577
*310 clknet_1_1__leaf_net587
*311 clknet_1_1__leaf_net596
*312 clknet_1_1__leaf_net600
*313 clknet_1_1__leaf_net603
*314 clknet_1_1__leaf_net604
*315 clknet_1_1__leaf_net617
*316 clknet_1_1__leaf_net633
*317 clknet_1_1__leaf_net643
*318 clknet_1_1__leaf_net755
*319 clknet_1_1__leaf_net784
*320 clknet_1_1__leaf_net785
*321 clknet_1_1__leaf_net795
*322 clknet_1_1__leaf_net796
*323 clknet_1_1__leaf_net814
*324 clknet_1_1__leaf_net815
*325 clknet_1_1__leaf_net816
*326 clknet_1_1__leaf_net890
*327 clknet_1_1__leaf_net892
*328 clknet_1_1__leaf_net900
*329 clknet_1_1__leaf_net902
*330 clknet_1_1__leaf_net903
*331 clknet_1_1__leaf_net906
*332 clknet_1_1__leaf_net914
*333 clknet_1_1__leaf_net917
*334 clknet_1_1__leaf_net921
*335 clknet_1_1__leaf_net924
*336 clknet_1_1__leaf_net929
*337 clknet_4_0_0_clk
*338 clknet_4_10_0_clk
*339 clknet_4_11_0_clk
*340 clknet_4_12_0_clk
*341 clknet_4_13_0_clk
*342 clknet_4_14_0_clk
*343 clknet_4_15_0_clk
*344 clknet_4_1_0_clk
*345 clknet_4_2_0_clk
*346 clknet_4_3_0_clk
*347 clknet_4_4_0_clk
*348 clknet_4_5_0_clk
*349 clknet_4_6_0_clk
*350 clknet_4_7_0_clk
*351 clknet_4_8_0_clk
*352 clknet_4_9_0_clk
*353 net0
*354 net1
*355 net10
*356 net100
*357 net1000
*358 net1001
*359 net1002
*360 net1003
*361 net1004
*362 net1005
*363 net1006
*364 net1007
*365 net1008
*366 net1009
*367 net101
*368 net1010
*369 net1011
*370 net1012
*371 net1013
*372 net1014
*373 net1015
*374 net1016
*375 net1017
*376 net1018
*377 net1019
*378 net102
*379 net1020
*380 net1021
*381 net1022
*382 net1023
*383 net1024
*384 net1025
*385 net1026
*386 net1027
*387 net1028
*388 net1029
*389 net103
*390 net1030
*391 net1031
*392 net1032
*393 net1033
*394 net1034
*395 net1035
*396 net1036
*397 net1037
*398 net1038
*399 net1039
*400 net104
*401 net1040
*402 net1041
*403 net1042
*404 net1043
*405 net1044
*406 net1045
*407 net1046
*408 net1047
*409 net1048
*410 net105
*411 net106
*412 net107
*413 net108
*414 net109
*415 net11
*416 net110
*417 net111
*418 net112
*419 net113
*420 net114
*421 net115
*422 net116
*423 net117
*424 net118
*425 net119
*426 net12
*427 net120
*428 net121
*429 net122
*430 net123
*431 net124
*432 net125
*433 net126
*434 net127
*435 net128
*436 net129
*437 net13
*438 net130
*439 net131
*440 net132
*441 net133
*442 net134
*443 net135
*444 net136
*445 net137
*446 net138
*447 net139
*448 net14
*449 net140
*450 net141
*451 net142
*452 net143
*453 net144
*454 net145
*455 net146
*456 net147
*457 net148
*458 net149
*459 net15
*460 net150
*461 net151
*462 net152
*463 net153
*464 net154
*465 net155
*466 net156
*467 net157
*468 net158
*469 net159
*470 net16
*471 net160
*472 net161
*473 net162
*474 net163
*475 net164
*476 net165
*477 net166
*478 net167
*479 net168
*480 net169
*481 net17
*482 net170
*483 net171
*484 net172
*485 net173
*486 net174
*487 net175
*488 net176
*489 net177
*490 net178
*491 net179
*492 net18
*493 net180
*494 net181
*495 net182
*496 net183
*497 net184
*498 net185
*499 net186
*500 net187
*501 net188
*502 net189
*503 net19
*504 net190
*505 net191
*506 net192
*507 net193
*508 net194
*509 net195
*510 net196
*511 net197
*512 net198
*513 net199
*514 net2
*515 net20
*516 net200
*517 net201
*518 net202
*519 net203
*520 net204
*521 net205
*522 net206
*523 net207
*524 net208
*525 net209
*526 net21
*527 net210
*528 net211
*529 net212
*530 net213
*531 net214
*532 net215
*533 net216
*534 net217
*535 net218
*536 net219
*537 net22
*538 net220
*539 net221
*540 net222
*541 net223
*542 net224
*543 net225
*544 net226
*545 net227
*546 net228
*547 net229
*548 net23
*549 net230
*550 net231
*551 net232
*552 net233
*553 net234
*554 net235
*555 net236
*556 net237
*557 net238
*558 net239
*559 net24
*560 net240
*561 net241
*562 net242
*563 net243
*564 net244
*565 net245
*566 net246
*567 net247
*568 net248
*569 net249
*570 net25
*571 net250
*572 net251
*573 net252
*574 net253
*575 net254
*576 net255
*577 net256
*578 net257
*579 net258
*580 net259
*581 net26
*582 net260
*583 net261
*584 net262
*585 net263
*586 net264
*587 net265
*588 net266
*589 net267
*590 net268
*591 net269
*592 net27
*593 net270
*594 net271
*595 net272
*596 net273
*597 net274
*598 net275
*599 net276
*600 net277
*601 net278
*602 net279
*603 net28
*604 net280
*605 net281
*606 net282
*607 net283
*608 net284
*609 net285
*610 net286
*611 net287
*612 net288
*613 net289
*614 net29
*615 net290
*616 net291
*617 net292
*618 net293
*619 net294
*620 net295
*621 net296
*622 net297
*623 net298
*624 net299
*625 net3
*626 net30
*627 net300
*628 net301
*629 net302
*630 net303
*631 net304
*632 net305
*633 net306
*634 net307
*635 net308
*636 net309
*637 net31
*638 net310
*639 net311
*640 net312
*641 net313
*642 net314
*643 net315
*644 net316
*645 net317
*646 net318
*647 net319
*648 net32
*649 net320
*650 net321
*651 net322
*652 net323
*653 net324
*654 net325
*655 net326
*656 net327
*657 net328
*658 net329
*659 net33
*660 net330
*661 net331
*662 net332
*663 net333
*664 net334
*665 net335
*666 net336
*667 net337
*668 net338
*669 net339
*670 net34
*671 net340
*672 net341
*673 net342
*674 net343
*675 net344
*676 net345
*677 net346
*678 net347
*679 net348
*680 net349
*681 net35
*682 net350
*683 net351
*684 net352
*685 net353
*686 net354
*687 net355
*688 net356
*689 net357
*690 net358
*691 net359
*692 net36
*693 net360
*694 net361
*695 net362
*696 net363
*697 net364
*698 net365
*699 net366
*700 net367
*701 net368
*702 net369
*703 net37
*704 net370
*705 net371
*706 net372
*707 net373
*708 net374
*709 net375
*710 net376
*711 net377
*712 net378
*713 net379
*714 net38
*715 net380
*716 net381
*717 net382
*718 net383
*719 net384
*720 net385
*721 net386
*722 net387
*723 net388
*724 net389
*725 net39
*726 net390
*727 net391
*728 net392
*729 net393
*730 net394
*731 net395
*732 net396
*733 net397
*734 net398
*735 net399
*736 net4
*737 net40
*738 net400
*739 net401
*740 net402
*741 net403
*742 net404
*743 net405
*744 net406
*745 net407
*746 net408
*747 net409
*748 net41
*749 net410
*750 net411
*751 net412
*752 net413
*753 net414
*754 net415
*755 net416
*756 net417
*757 net418
*758 net419
*759 net42
*760 net420
*761 net421
*762 net422
*763 net423
*764 net424
*765 net425
*766 net426
*767 net427
*768 net428
*769 net429
*770 net43
*771 net430
*772 net431
*773 net432
*774 net433
*775 net434
*776 net435
*777 net436
*778 net437
*779 net438
*780 net439
*781 net44
*782 net440
*783 net441
*784 net442
*785 net443
*786 net444
*787 net445
*788 net446
*789 net447
*790 net448
*791 net449
*792 net45
*793 net450
*794 net451
*795 net452
*796 net453
*797 net454
*798 net455
*799 net456
*800 net457
*801 net458
*802 net459
*803 net46
*804 net460
*805 net461
*806 net462
*807 net463
*808 net464
*809 net465
*810 net466
*811 net467
*812 net468
*813 net469
*814 net47
*815 net470
*816 net471
*817 net472
*818 net473
*819 net474
*820 net475
*821 net476
*822 net477
*823 net478
*824 net479
*825 net48
*826 net480
*827 net481
*828 net482
*829 net483
*830 net484
*831 net485
*832 net486
*833 net487
*834 net488
*835 net489
*836 net49
*837 net490
*838 net491
*839 net492
*840 net493
*841 net494
*842 net495
*843 net496
*844 net497
*845 net498
*846 net499
*847 net5
*848 net50
*849 net500
*850 net501
*851 net502
*852 net503
*853 net504
*854 net505
*855 net506
*856 net507
*857 net508
*858 net509
*859 net51
*860 net510
*861 net511
*862 net512
*863 net513
*864 net514
*865 net515
*866 net516
*867 net517
*868 net518
*869 net519
*870 net52
*871 net520
*872 net521
*873 net522
*874 net523
*875 net524
*876 net525
*877 net526
*878 net527
*879 net528
*880 net529
*881 net53
*882 net530
*883 net531
*884 net532
*885 net533
*886 net534
*887 net535
*888 net536
*889 net537
*890 net538
*891 net539
*892 net54
*893 net540
*894 net541
*895 net542
*896 net543
*897 net544
*898 net545
*899 net546
*900 net547
*901 net548
*902 net549
*903 net55
*904 net550
*905 net551
*906 net552
*907 net553
*908 net554
*909 net555
*910 net556
*911 net557
*912 net558
*913 net559
*914 net56
*915 net560
*916 net561
*917 net562
*918 net563
*919 net564
*920 net565
*921 net566
*922 net567
*923 net568
*924 net569
*925 net57
*926 net570
*927 net571
*928 net572
*929 net573
*930 net574
*931 net575
*932 net576
*933 net577
*934 net578
*935 net579
*936 net58
*937 net580
*938 net581
*939 net582
*940 net583
*941 net584
*942 net585
*943 net586
*944 net587
*945 net588
*946 net589
*947 net59
*948 net590
*949 net591
*950 net592
*951 net593
*952 net594
*953 net595
*954 net596
*955 net597
*956 net598
*957 net599
*958 net6
*959 net60
*960 net600
*961 net601
*962 net602
*963 net603
*964 net604
*965 net605
*966 net606
*967 net607
*968 net608
*969 net609
*970 net61
*971 net610
*972 net611
*973 net612
*974 net613
*975 net614
*976 net615
*977 net616
*978 net617
*979 net618
*980 net619
*981 net62
*982 net620
*983 net621
*984 net622
*985 net623
*986 net624
*987 net625
*988 net626
*989 net627
*990 net628
*991 net629
*992 net63
*993 net630
*994 net631
*995 net632
*996 net633
*997 net634
*998 net635
*999 net636
*1000 net637
*1001 net638
*1002 net639
*1003 net64
*1004 net640
*1005 net641
*1006 net642
*1007 net643
*1008 net644
*1009 net645
*1010 net646
*1011 net647
*1012 net648
*1013 net649
*1014 net65
*1015 net650
*1016 net651
*1017 net652
*1018 net653
*1019 net654
*1020 net655
*1021 net656
*1022 net657
*1023 net658
*1024 net659
*1025 net66
*1026 net660
*1027 net661
*1028 net662
*1029 net663
*1030 net664
*1031 net665
*1032 net666
*1033 net667
*1034 net668
*1035 net669
*1036 net67
*1037 net670
*1038 net671
*1039 net672
*1040 net673
*1041 net674
*1042 net675
*1043 net676
*1044 net677
*1045 net678
*1046 net679
*1047 net68
*1048 net680
*1049 net681
*1050 net682
*1051 net683
*1052 net684
*1053 net685
*1054 net686
*1055 net687
*1056 net688
*1057 net689
*1058 net69
*1059 net690
*1060 net691
*1061 net692
*1062 net693
*1063 net694
*1064 net695
*1065 net696
*1066 net697
*1067 net698
*1068 net699
*1069 net7
*1070 net70
*1071 net700
*1072 net701
*1073 net702
*1074 net703
*1075 net704
*1076 net705
*1077 net706
*1078 net707
*1079 net708
*1080 net709
*1081 net71
*1082 net710
*1083 net711
*1084 net712
*1085 net713
*1086 net714
*1087 net715
*1088 net716
*1089 net717
*1090 net718
*1091 net719
*1092 net72
*1093 net720
*1094 net721
*1095 net722
*1096 net723
*1097 net724
*1098 net725
*1099 net726
*1100 net727
*1101 net728
*1102 net729
*1103 net73
*1104 net730
*1105 net731
*1106 net732
*1107 net733
*1108 net734
*1109 net735
*1110 net736
*1111 net737
*1112 net738
*1113 net739
*1114 net74
*1115 net740
*1116 net741
*1117 net742
*1118 net743
*1119 net744
*1120 net745
*1121 net746
*1122 net747
*1123 net748
*1124 net749
*1125 net75
*1126 net750
*1127 net751
*1128 net752
*1129 net753
*1130 net754
*1131 net755
*1132 net756
*1133 net757
*1134 net758
*1135 net759
*1136 net76
*1137 net760
*1138 net761
*1139 net762
*1140 net763
*1141 net764
*1142 net765
*1143 net766
*1144 net767
*1145 net768
*1146 net769
*1147 net77
*1148 net770
*1149 net771
*1150 net772
*1151 net773
*1152 net774
*1153 net775
*1154 net776
*1155 net777
*1156 net778
*1157 net779
*1158 net78
*1159 net780
*1160 net781
*1161 net782
*1162 net783
*1163 net784
*1164 net785
*1165 net786
*1166 net787
*1167 net788
*1168 net789
*1169 net79
*1170 net790
*1171 net791
*1172 net792
*1173 net793
*1174 net794
*1175 net795
*1176 net796
*1177 net797
*1178 net798
*1179 net799
*1180 net8
*1181 net80
*1182 net800
*1183 net801
*1184 net802
*1185 net803
*1186 net804
*1187 net805
*1188 net806
*1189 net807
*1190 net808
*1191 net809
*1192 net81
*1193 net810
*1194 net811
*1195 net812
*1196 net813
*1197 net814
*1198 net815
*1199 net816
*1200 net817
*1201 net818
*1202 net819
*1203 net82
*1204 net820
*1205 net821
*1206 net822
*1207 net823
*1208 net824
*1209 net825
*1210 net826
*1211 net827
*1212 net828
*1213 net829
*1214 net83
*1215 net830
*1216 net831
*1217 net832
*1218 net833
*1219 net834
*1220 net835
*1221 net836
*1222 net837
*1223 net838
*1224 net839
*1225 net84
*1226 net840
*1227 net841
*1228 net842
*1229 net843
*1230 net844
*1231 net845
*1232 net846
*1233 net847
*1234 net848
*1235 net849
*1236 net85
*1237 net850
*1238 net851
*1239 net852
*1240 net853
*1241 net854
*1242 net855
*1243 net856
*1244 net857
*1245 net858
*1246 net859
*1247 net86
*1248 net860
*1249 net861
*1250 net862
*1251 net863
*1252 net864
*1253 net865
*1254 net866
*1255 net867
*1256 net868
*1257 net869
*1258 net87
*1259 net870
*1260 net871
*1261 net872
*1262 net873
*1263 net874
*1264 net875
*1265 net876
*1266 net877
*1267 net878
*1268 net879
*1269 net88
*1270 net880
*1271 net881
*1272 net882
*1273 net883
*1274 net884
*1275 net885
*1276 net886
*1277 net887
*1278 net888
*1279 net889
*1280 net89
*1281 net890
*1282 net891
*1283 net892
*1284 net893
*1285 net894
*1286 net895
*1287 net896
*1288 net897
*1289 net898
*1290 net899
*1291 net9
*1292 net90
*1293 net900
*1294 net901
*1295 net902
*1296 net903
*1297 net904
*1298 net905
*1299 net906
*1300 net907
*1301 net908
*1302 net909
*1303 net91
*1304 net910
*1305 net911
*1306 net912
*1307 net913
*1308 net914
*1309 net915
*1310 net916
*1311 net917
*1312 net918
*1313 net919
*1314 net92
*1315 net920
*1316 net921
*1317 net922
*1318 net923
*1319 net924
*1320 net925
*1321 net926
*1322 net927
*1323 net928
*1324 net929
*1325 net93
*1326 net930
*1327 net931
*1328 net932
*1329 net933
*1330 net934
*1331 net935
*1332 net936
*1333 net937
*1334 net938
*1335 net939
*1336 net94
*1337 net940
*1338 net941
*1339 net942
*1340 net943
*1341 net944
*1342 net945
*1343 net946
*1344 net947
*1345 net948
*1346 net949
*1347 net95
*1348 net950
*1349 net951
*1350 net952
*1351 net953
*1352 net954
*1353 net955
*1354 net956
*1355 net957
*1356 net958
*1357 net959
*1358 net96
*1359 net960
*1360 net961
*1361 net962
*1362 net963
*1363 net964
*1364 net965
*1365 net966
*1366 net967
*1367 net968
*1368 net969
*1369 net97
*1370 net970
*1371 net971
*1372 net972
*1373 net973
*1374 net974
*1375 net975
*1376 net976
*1377 net977
*1378 net978
*1379 net979
*1380 net98
*1381 net980
*1382 net981
*1383 net982
*1384 net983
*1385 net984
*1386 net985
*1387 net986
*1388 net987
*1389 net988
*1390 net989
*1391 net99
*1392 net990
*1393 net991
*1394 net992
*1395 net993
*1396 net994
*1397 net995
*1398 net996
*1399 net997
*1400 net998
*1401 net999
*1402 ANTENNA_1
*1403 ANTENNA_c100_Y
*1404 ANTENNA_c101_B
*1405 ANTENNA_c103_A2
*1406 ANTENNA_c104_A1
*1407 ANTENNA_c104_A2
*1408 ANTENNA_c104_X
*1409 ANTENNA_c105_A2
*1410 ANTENNA_c105_A4
*1411 ANTENNA_c106_S
*1412 ANTENNA_c107_A3
*1413 ANTENNA_c107_X
*1414 ANTENNA_c110_B_N
*1415 ANTENNA_c111_B
*1416 ANTENNA_c112_B_N
*1417 ANTENNA_c113_A2
*1418 ANTENNA_c113_B1_N
*1419 ANTENNA_c118_A2
*1420 ANTENNA_c119_A
*1421 ANTENNA_c120_X
*1422 ANTENNA_c121_A0
*1423 ANTENNA_c121_S1
*1424 ANTENNA_c122_A
*1425 ANTENNA_c126_A3
*1426 ANTENNA_c128_A
*1427 ANTENNA_c129_A1
*1428 ANTENNA_c129_A2
*1429 ANTENNA_c130_B1
*1430 ANTENNA_c131_Y
*1431 ANTENNA_c132_A2
*1432 ANTENNA_c132_B1
*1433 ANTENNA_c132_X
*1434 ANTENNA_c133_A2
*1435 ANTENNA_c133_A3
*1436 ANTENNA_c133_B1
*1437 ANTENNA_c133_X
*1438 ANTENNA_c134_B1
*1439 ANTENNA_c135_B1
*1440 ANTENNA_c136_X
*1441 ANTENNA_c137_X
*1442 ANTENNA_c138_A
*1443 ANTENNA_c138_B_N
*1444 ANTENNA_c139_B1
*1445 ANTENNA_c140_A_N
*1446 ANTENNA_c140_Y
*1447 ANTENNA_c142_A1
*1448 ANTENNA_c142_A2
*1449 ANTENNA_c142_B1
*1450 ANTENNA_c142_Y
*1451 ANTENNA_c143_Y
*1452 ANTENNA_c144_A3
*1453 ANTENNA_c144_B1
*1454 ANTENNA_c144_X
*1455 ANTENNA_c145_B
*1456 ANTENNA_c146_B
*1457 ANTENNA_c146_Y
*1458 ANTENNA_c147_A1
*1459 ANTENNA_c147_A2
*1460 ANTENNA_c148_A1
*1461 ANTENNA_c148_A2
*1462 ANTENNA_c148_A3
*1463 ANTENNA_c149_A1
*1464 ANTENNA_c149_A3
*1465 ANTENNA_c149_B1
*1466 ANTENNA_c149_X
*1467 ANTENNA_c150_A1
*1468 ANTENNA_c150_B1
*1469 ANTENNA_c150_X
*1470 ANTENNA_c151_A1
*1471 ANTENNA_c151_A3
*1472 ANTENNA_c151_S1
*1473 ANTENNA_c152_A0
*1474 ANTENNA_c152_A3
*1475 ANTENNA_c152_S0
*1476 ANTENNA_c152_S1
*1477 ANTENNA_c153_A2
*1478 ANTENNA_c153_A3
*1479 ANTENNA_c153_S0
*1480 ANTENNA_c155_A2
*1481 ANTENNA_c155_B1_N
*1482 ANTENNA_c155_Y
*1483 ANTENNA_c157_A2
*1484 ANTENNA_c157_A3
*1485 ANTENNA_c157_A4
*1486 ANTENNA_c157_B1
*1487 ANTENNA_c158_B
*1488 ANTENNA_c159_A1
*1489 ANTENNA_c160_B
*1490 ANTENNA_c161_B_N
*1491 ANTENNA_c162_Y
*1492 ANTENNA_c163_B_N
*1493 ANTENNA_c164_A2
*1494 ANTENNA_c165_B_N
*1495 ANTENNA_c166_A1
*1496 ANTENNA_c166_S1
*1497 ANTENNA_c168_Y
*1498 ANTENNA_c169_B1
*1499 ANTENNA_c169_X
*1500 ANTENNA_c170_A3
*1501 ANTENNA_c170_X
*1502 ANTENNA_c171_A2
*1503 ANTENNA_c171_A3
*1504 ANTENNA_c171_X
*1505 ANTENNA_c172_A1
*1506 ANTENNA_c172_A2
*1507 ANTENNA_c172_B1
*1508 ANTENNA_c172_X
*1509 ANTENNA_c173_A1
*1510 ANTENNA_c173_S0
*1511 ANTENNA_c173_S1
*1512 ANTENNA_c173_X
*1513 ANTENNA_c174_A2
*1514 ANTENNA_c174_S1
*1515 ANTENNA_c175_A1
*1516 ANTENNA_c175_A2
*1517 ANTENNA_c175_B1
*1518 ANTENNA_c176_B
*1519 ANTENNA_c176_Y
*1520 ANTENNA_c177_X
*1521 ANTENNA_c178_A2
*1522 ANTENNA_c178_A3
*1523 ANTENNA_c178_B1
*1524 ANTENNA_c181_B1
*1525 ANTENNA_c183_A1
*1526 ANTENNA_c183_A2
*1527 ANTENNA_c183_B1
*1528 ANTENNA_c184_B_N
*1529 ANTENNA_c184_Y
*1530 ANTENNA_c185_B1_N
*1531 ANTENNA_c186_A2
*1532 ANTENNA_c186_X
*1533 ANTENNA_c188_A1
*1534 ANTENNA_c188_S0
*1535 ANTENNA_c188_S1
*1536 ANTENNA_c189_A1
*1537 ANTENNA_c190_A2
*1538 ANTENNA_c190_B1
*1539 ANTENNA_c191_A2
*1540 ANTENNA_c193_A1
*1541 ANTENNA_c193_B1
*1542 ANTENNA_c193_X
*1543 ANTENNA_c194_A0
*1544 ANTENNA_c194_S1
*1545 ANTENNA_c194_X
*1546 ANTENNA_c195_A3
*1547 ANTENNA_c195_S0
*1548 ANTENNA_c197_A3
*1549 ANTENNA_c198_B
*1550 ANTENNA_c199_A2
*1551 ANTENNA_c203_A2
*1552 ANTENNA_c203_Y
*1553 ANTENNA_c204_A2
*1554 ANTENNA_c204_A3
*1555 ANTENNA_c204_A4
*1556 ANTENNA_c204_B1
*1557 ANTENNA_c204_Y
*1558 ANTENNA_c205_B1_N
*1559 ANTENNA_c206_A1
*1560 ANTENNA_c206_S
*1561 ANTENNA_c207_SCE
*1562 ANTENNA_c208_A2
*1563 ANTENNA_c208_B1
*1564 ANTENNA_c209_B
*1565 ANTENNA_c210_A2
*1566 ANTENNA_c210_B1
*1567 ANTENNA_c210_X
*1568 ANTENNA_c211_S0
*1569 ANTENNA_c212_A1
*1570 ANTENNA_c212_A2
*1571 ANTENNA_c212_S0
*1572 ANTENNA_c214_A2
*1573 ANTENNA_c214_A4
*1574 ANTENNA_c215_A2
*1575 ANTENNA_c215_B1_N
*1576 ANTENNA_c216_A
*1577 ANTENNA_c217_A2
*1578 ANTENNA_c217_A3
*1579 ANTENNA_c217_B1
*1580 ANTENNA_c217_X
*1581 ANTENNA_c218_A1
*1582 ANTENNA_c218_S0
*1583 ANTENNA_c219_A2
*1584 ANTENNA_c219_B1
*1585 ANTENNA_c221_A
*1586 ANTENNA_c221_X
*1587 ANTENNA_c222_B1
*1588 ANTENNA_c223_A_N
*1589 ANTENNA_c223_B
*1590 ANTENNA_c224_B
*1591 ANTENNA_c224_X
*1592 ANTENNA_c225_Y
*1593 ANTENNA_c227_Y
*1594 ANTENNA_c228_A1
*1595 ANTENNA_c228_A2
*1596 ANTENNA_c228_A3
*1597 ANTENNA_c228_S1
*1598 ANTENNA_c229_B
*1599 ANTENNA_c230_A3
*1600 ANTENNA_c230_S0
*1601 ANTENNA_c230_S1
*1602 ANTENNA_c232_A0
*1603 ANTENNA_c232_A2
*1604 ANTENNA_c232_S0
*1605 ANTENNA_c232_S1
*1606 ANTENNA_c233_A3
*1607 ANTENNA_c233_B1
*1608 ANTENNA_c233_X
*1609 ANTENNA_c234_A0
*1610 ANTENNA_c234_A2
*1611 ANTENNA_c234_S0
*1612 ANTENNA_c236_A3
*1613 ANTENNA_c236_B1
*1614 ANTENNA_c239_A3
*1615 ANTENNA_c240_A3
*1616 ANTENNA_c240_S0
*1617 ANTENNA_c240_S1
*1618 ANTENNA_c241_CLK_N
*1619 ANTENNA_c241_SCD
*1620 ANTENNA_c242_A4
*1621 ANTENNA_c243_A2
*1622 ANTENNA_c243_A3
*1623 ANTENNA_c244_A1
*1624 ANTENNA_c244_B1
*1625 ANTENNA_c245_S
*1626 ANTENNA_c248_X
*1627 ANTENNA_c249_A2
*1628 ANTENNA_c249_B1
*1629 ANTENNA_c250_A
*1630 ANTENNA_c251_A2
*1631 ANTENNA_c252_B1
*1632 ANTENNA_c253_A
*1633 ANTENNA_c255_A1
*1634 ANTENNA_c255_S1
*1635 ANTENNA_c257_CLK_N
*1636 ANTENNA_c257_SCD
*1637 ANTENNA_c257_SCE
*1638 ANTENNA_c258_A2
*1639 ANTENNA_c259_B1_N
*1640 ANTENNA_c260_S1
*1641 ANTENNA_c261_A0
*1642 ANTENNA_c261_S1
*1643 ANTENNA_c262_CLK
*1644 ANTENNA_c262_SCE
*1645 ANTENNA_c263_A3
*1646 ANTENNA_c263_S0
*1647 ANTENNA_c264_A2
*1648 ANTENNA_c264_B1
*1649 ANTENNA_c266_X
*1650 ANTENNA_c267_A_N
*1651 ANTENNA_c267_B
*1652 ANTENNA_c267_X
*1653 ANTENNA_c268_A
*1654 ANTENNA_c269_A1
*1655 ANTENNA_c269_A2
*1656 ANTENNA_c269_B1_N
*1657 ANTENNA_c270_B_N
*1658 ANTENNA_c271_A
*1659 ANTENNA_c271_B
*1660 ANTENNA_c271_Y
*1661 ANTENNA_c273_A
*1662 ANTENNA_c275_A1
*1663 ANTENNA_c275_A2
*1664 ANTENNA_c275_B1_N
*1665 ANTENNA_c275_X
*1666 ANTENNA_c276_B
*1667 ANTENNA_c277_A2
*1668 ANTENNA_c279_A3
*1669 ANTENNA_c279_S1
*1670 ANTENNA_c280_A3
*1671 ANTENNA_c280_S1
*1672 ANTENNA_c281_A1
*1673 ANTENNA_c281_Y
*1674 ANTENNA_c282_X
*1675 ANTENNA_c283_A3
*1676 ANTENNA_c283_X
*1677 ANTENNA_c284_Y
*1678 ANTENNA_c285_A0
*1679 ANTENNA_c285_A1
*1680 ANTENNA_c285_A2
*1681 ANTENNA_c285_X
*1682 ANTENNA_c286_Y
*1683 ANTENNA_c287_B1_N
*1684 ANTENNA_c288_A3
*1685 ANTENNA_c288_B1
*1686 ANTENNA_c289_B1
*1687 ANTENNA_c290_A
*1688 ANTENNA_c291_A
*1689 ANTENNA_c291_X
*1690 ANTENNA_c292_B
*1691 ANTENNA_c293_A1
*1692 ANTENNA_c293_B1_N
*1693 ANTENNA_c293_X
*1694 ANTENNA_c294_Y
*1695 ANTENNA_c295_A
*1696 ANTENNA_c296_A2
*1697 ANTENNA_c296_A3
*1698 ANTENNA_c297_CLK_N
*1699 ANTENNA_c297_Q
*1700 ANTENNA_c297_Q_N
*1701 ANTENNA_c297_RESET_B
*1702 ANTENNA_c297_SCE
*1703 ANTENNA_c298_B
*1704 ANTENNA_c299_B1
*1705 ANTENNA_c301_S
*1706 ANTENNA_c302_A0
*1707 ANTENNA_c302_A3
*1708 ANTENNA_c302_S1
*1709 ANTENNA_c304_A2
*1710 ANTENNA_c304_B1
*1711 ANTENNA_c305_SCE
*1712 ANTENNA_c305_SET_B
*1713 ANTENNA_c306_A2
*1714 ANTENNA_c307_A1
*1715 ANTENNA_c308_B
*1716 ANTENNA_c311_A2
*1717 ANTENNA_c311_B1_N
*1718 ANTENNA_c313_A1
*1719 ANTENNA_c313_A2
*1720 ANTENNA_c317_A1
*1721 ANTENNA_c317_S1
*1722 ANTENNA_c318_A0
*1723 ANTENNA_c318_A2
*1724 ANTENNA_c318_S0
*1725 ANTENNA_c319_A0
*1726 ANTENNA_c320_A3
*1727 ANTENNA_c320_A4
*1728 ANTENNA_c320_B1
*1729 ANTENNA_c321_A1
*1730 ANTENNA_c321_A2
*1731 ANTENNA_c321_S0
*1732 ANTENNA_c321_S1
*1733 ANTENNA_c323_A
*1734 ANTENNA_c325_S0
*1735 ANTENNA_c326_A0
*1736 ANTENNA_c326_A1
*1737 ANTENNA_c327_A2
*1738 ANTENNA_c327_A3
*1739 ANTENNA_c327_S1
*1740 ANTENNA_c329_Q
*1741 ANTENNA_c329_Q_N
*1742 ANTENNA_c329_RESET_B
*1743 ANTENNA_c329_SCE
*1744 ANTENNA_c330_B
*1745 ANTENNA_c332_A2
*1746 ANTENNA_c332_X
*1747 ANTENNA_c333_Q
*1748 ANTENNA_c333_Q_N
*1749 ANTENNA_c333_RESET_B
*1750 ANTENNA_c333_SCD
*1751 ANTENNA_c333_SCE
*1752 ANTENNA_c333_SET_B
*1753 ANTENNA_c334_Q
*1754 ANTENNA_c334_RESET_B
*1755 ANTENNA_c334_SCE
*1756 ANTENNA_c335_B
*1757 ANTENNA_c336_A
*1758 ANTENNA_c337_A0
*1759 ANTENNA_c337_A1
*1760 ANTENNA_c337_X
*1761 ANTENNA_c338_A
*1762 ANTENNA_c340_A1
*1763 ANTENNA_c340_A3
*1764 ANTENNA_c340_A4
*1765 ANTENNA_c341_A
*1766 ANTENNA_c344_A2
*1767 ANTENNA_c345_A1
*1768 ANTENNA_c345_A3
*1769 ANTENNA_c347_A3
*1770 ANTENNA_c348_A3
*1771 ANTENNA_c348_S1
*1772 ANTENNA_c349_A0
*1773 ANTENNA_c349_A2
*1774 ANTENNA_c349_S0
*1775 ANTENNA_c349_S1
*1776 ANTENNA_c350_A2
*1777 ANTENNA_c350_A3
*1778 ANTENNA_c350_S1
*1779 ANTENNA_c351_A1
*1780 ANTENNA_c351_A2
*1781 ANTENNA_c351_A3
*1782 ANTENNA_c351_S1
*1783 ANTENNA_c352_A2
*1784 ANTENNA_c352_B1
*1785 ANTENNA_c353_A1
*1786 ANTENNA_c353_A2
*1787 ANTENNA_c355_A2
*1788 ANTENNA_c355_B1
*1789 ANTENNA_c356_A1
*1790 ANTENNA_c356_A3
*1791 ANTENNA_c356_B1
*1792 ANTENNA_c357_A1
*1793 ANTENNA_c358_B
*1794 ANTENNA_c359_CLK_N
*1795 ANTENNA_c359_D
*1796 ANTENNA_c359_SCD
*1797 ANTENNA_c359_SCE
*1798 ANTENNA_c359_SET_B
*1799 ANTENNA_c360_A2
*1800 ANTENNA_c360_S0
*1801 ANTENNA_c361_A2
*1802 ANTENNA_c361_B1
*1803 ANTENNA_c362_A0
*1804 ANTENNA_c362_A1
*1805 ANTENNA_c362_A2
*1806 ANTENNA_c362_S0
*1807 ANTENNA_c363_A2
*1808 ANTENNA_c363_A3
*1809 ANTENNA_c364_CLK
*1810 ANTENNA_c364_D
*1811 ANTENNA_c364_Q
*1812 ANTENNA_c364_Q_N
*1813 ANTENNA_c364_RESET_B
*1814 ANTENNA_c364_SCE
*1815 ANTENNA_c364_SET_B
*1816 ANTENNA_c365_A2
*1817 ANTENNA_c365_A4
*1818 ANTENNA_c365_B1
*1819 ANTENNA_c366_A2
*1820 ANTENNA_c366_A4
*1821 ANTENNA_c367_A1
*1822 ANTENNA_c367_A2
*1823 ANTENNA_c367_A3
*1824 ANTENNA_c367_S1
*1825 ANTENNA_c368_X
*1826 ANTENNA_c369_A4
*1827 ANTENNA_c369_B1
*1828 ANTENNA_c370_A3
*1829 ANTENNA_c370_S0
*1830 ANTENNA_c370_S1
*1831 ANTENNA_c371_A2
*1832 ANTENNA_c371_S0
*1833 ANTENNA_c371_S1
*1834 ANTENNA_c372_A3
*1835 ANTENNA_c372_B1
*1836 ANTENNA_c373_A2
*1837 ANTENNA_c373_A3
*1838 ANTENNA_c373_S0
*1839 ANTENNA_c375_A1
*1840 ANTENNA_c375_A3
*1841 ANTENNA_c375_S0
*1842 ANTENNA_c376_A2