*SPEF "ieee 1481-1999"
*DESIGN "netlist_1"
*DATE "01:10:14 Saturday July 20, 2024"
*VENDOR "The OpenROAD Project"
*PROGRAM "OpenROAD"
*VERSION "d423155d69de7f683a23f6916ead418a615ad4ad"
*DESIGN_FLOW "NAME_SCOPE LOCAL" "PIN_CAP NONE"
*DIVIDER /
*DELIMITER :
*BUS_DELIMITER []
*T_UNIT 1 NS
*C_UNIT 1 PF
*R_UNIT 1 OHM
*L_UNIT 1 HENRY

*NAME_MAP
*3 clk
*4 in0
*5 in1
*6 in10
*7 in11
*8 in12
*9 in13
*10 in14
*11 in15
*12 in16
*13 in17
*14 in18
*15 in19
*16 in2
*17 in20
*18 in21
*19 in22
*20 in23
*21 in24
*22 in25
*23 in26
*24 in27
*25 in28
*26 in29
*27 in3
*28 in30
*29 in31
*30 in32
*31 in33
*32 in34
*33 in35
*34 in36
*35 in37
*36 in38
*37 in39
*38 in4
*39 in40
*40 in41
*41 in42
*42 in43
*43 in44
*44 in45
*45 in46
*46 in47
*47 in48
*48 in49
*49 in5
*50 in50
*51 in51
*52 in52
*53 in53
*54 in54
*55 in55
*56 in56
*57 in57
*58 in58
*59 in59
*60 in6
*61 in60
*62 in61
*63 in7
*64 in8
*65 in9
*66 out0
*67 out1
*68 out10
*69 out11
*70 out12
*71 out13
*72 out14
*73 out15
*74 out16
*75 out17
*76 out18
*77 out19
*78 out2
*79 out20
*80 out21
*81 out22
*82 out23
*83 out24
*84 out25
*85 out26
*86 out27
*87 out28
*88 out29
*89 out3
*90 out30
*91 out31
*92 out32
*93 out33
*94 out34
*95 out35
*96 out36
*97 out37
*98 out38
*99 out39
*100 out4
*101 out40
*102 out41
*103 out42
*104 out43
*105 out44
*106 out45
*107 out46
*108 out47
*109 out48
*110 out49
*111 out5
*112 out50
*113 out51
*114 out52
*115 out53
*116 out54
*117 out55
*118 out56
*119 out57
*120 out58
*121 out59
*122 out6
*123 out60
*124 out61
*125 out7
*126 out8
*127 out9
*128 rst
*129 clknet_0_clk
*130 clknet_0_net239
*131 clknet_0_net272
*132 clknet_0_net279
*133 clknet_0_net313
*134 clknet_0_net315
*135 clknet_0_net318
*136 clknet_0_net321
*137 clknet_0_net323
*138 clknet_0_net325
*139 clknet_0_net326
*140 clknet_0_net327
*141 clknet_0_net328
*142 clknet_0_net331
*143 clknet_0_net332
*144 clknet_0_net334
*145 clknet_0_net340
*146 clknet_0_net342
*147 clknet_0_net359
*148 clknet_0_net374
*149 clknet_0_net378
*150 clknet_0_net417
*151 clknet_0_net418
*152 clknet_0_net419
*153 clknet_0_net420
*154 clknet_0_net422
*155 clknet_0_net423
*156 clknet_0_net424
*157 clknet_0_net435
*158 clknet_0_net440
*159 clknet_0_net443
*160 clknet_0_net444
*161 clknet_0_net453
*162 clknet_0_net458
*163 clknet_0_net459
*164 clknet_0_net475
*165 clknet_0_net484
*166 clknet_0_net485
*167 clknet_0_net486
*168 clknet_0_net491
*169 clknet_0_net492
*170 clknet_0_net535
*171 clknet_0_net542
*172 clknet_0_net546
*173 clknet_0_net551
*174 clknet_0_net571
*175 clknet_0_net599
*176 clknet_0_net602
*177 clknet_0_net604
*178 clknet_0_net686
*179 clknet_0_net688
*180 clknet_0_net705
*181 clknet_0_net706
*182 clknet_0_net707
*183 clknet_0_net724
*184 clknet_0_net742
*185 clknet_0_net743
*186 clknet_0_net763
*187 clknet_0_net859
*188 clknet_0_net875
*189 clknet_0_net881
*190 clknet_0_net924
*191 clknet_0_net925
*192 clknet_1_0__leaf_net239
*193 clknet_1_0__leaf_net272
*194 clknet_1_0__leaf_net279
*195 clknet_1_0__leaf_net313
*196 clknet_1_0__leaf_net315
*197 clknet_1_0__leaf_net318
*198 clknet_1_0__leaf_net321
*199 clknet_1_0__leaf_net323
*200 clknet_1_0__leaf_net325
*201 clknet_1_0__leaf_net326
*202 clknet_1_0__leaf_net327
*203 clknet_1_0__leaf_net328
*204 clknet_1_0__leaf_net331
*205 clknet_1_0__leaf_net332
*206 clknet_1_0__leaf_net334
*207 clknet_1_0__leaf_net340
*208 clknet_1_0__leaf_net342
*209 clknet_1_0__leaf_net359
*210 clknet_1_0__leaf_net374
*211 clknet_1_0__leaf_net378
*212 clknet_1_0__leaf_net417
*213 clknet_1_0__leaf_net418
*214 clknet_1_0__leaf_net419
*215 clknet_1_0__leaf_net420
*216 clknet_1_0__leaf_net422
*217 clknet_1_0__leaf_net423
*218 clknet_1_0__leaf_net424
*219 clknet_1_0__leaf_net435
*220 clknet_1_0__leaf_net440
*221 clknet_1_0__leaf_net443
*222 clknet_1_0__leaf_net444
*223 clknet_1_0__leaf_net453
*224 clknet_1_0__leaf_net458
*225 clknet_1_0__leaf_net459
*226 clknet_1_0__leaf_net475
*227 clknet_1_0__leaf_net484
*228 clknet_1_0__leaf_net485
*229 clknet_1_0__leaf_net486
*230 clknet_1_0__leaf_net491
*231 clknet_1_0__leaf_net492
*232 clknet_1_0__leaf_net535
*233 clknet_1_0__leaf_net542
*234 clknet_1_0__leaf_net546
*235 clknet_1_0__leaf_net551
*236 clknet_1_0__leaf_net571
*237 clknet_1_0__leaf_net599
*238 clknet_1_0__leaf_net602
*239 clknet_1_0__leaf_net604
*240 clknet_1_0__leaf_net686
*241 clknet_1_0__leaf_net688
*242 clknet_1_0__leaf_net705
*243 clknet_1_0__leaf_net706
*244 clknet_1_0__leaf_net707
*245 clknet_1_0__leaf_net724
*246 clknet_1_0__leaf_net742
*247 clknet_1_0__leaf_net743
*248 clknet_1_0__leaf_net763
*249 clknet_1_0__leaf_net859
*250 clknet_1_0__leaf_net875
*251 clknet_1_0__leaf_net881
*252 clknet_1_0__leaf_net924
*253 clknet_1_0__leaf_net925
*254 clknet_1_1__leaf_net239
*255 clknet_1_1__leaf_net272
*256 clknet_1_1__leaf_net279
*257 clknet_1_1__leaf_net313
*258 clknet_1_1__leaf_net315
*259 clknet_1_1__leaf_net318
*260 clknet_1_1__leaf_net321
*261 clknet_1_1__leaf_net323
*262 clknet_1_1__leaf_net325
*263 clknet_1_1__leaf_net326
*264 clknet_1_1__leaf_net327
*265 clknet_1_1__leaf_net328
*266 clknet_1_1__leaf_net331
*267 clknet_1_1__leaf_net332
*268 clknet_1_1__leaf_net334
*269 clknet_1_1__leaf_net340
*270 clknet_1_1__leaf_net342
*271 clknet_1_1__leaf_net359
*272 clknet_1_1__leaf_net374
*273 clknet_1_1__leaf_net378
*274 clknet_1_1__leaf_net417
*275 clknet_1_1__leaf_net418
*276 clknet_1_1__leaf_net419
*277 clknet_1_1__leaf_net420
*278 clknet_1_1__leaf_net422
*279 clknet_1_1__leaf_net423
*280 clknet_1_1__leaf_net424
*281 clknet_1_1__leaf_net435
*282 clknet_1_1__leaf_net440
*283 clknet_1_1__leaf_net443
*284 clknet_1_1__leaf_net444
*285 clknet_1_1__leaf_net453
*286 clknet_1_1__leaf_net458
*287 clknet_1_1__leaf_net459
*288 clknet_1_1__leaf_net475
*289 clknet_1_1__leaf_net484
*290 clknet_1_1__leaf_net485
*291 clknet_1_1__leaf_net486
*292 clknet_1_1__leaf_net491
*293 clknet_1_1__leaf_net492
*294 clknet_1_1__leaf_net535
*295 clknet_1_1__leaf_net542
*296 clknet_1_1__leaf_net546
*297 clknet_1_1__leaf_net551
*298 clknet_1_1__leaf_net571
*299 clknet_1_1__leaf_net599
*300 clknet_1_1__leaf_net602
*301 clknet_1_1__leaf_net604
*302 clknet_1_1__leaf_net686
*303 clknet_1_1__leaf_net688
*304 clknet_1_1__leaf_net705
*305 clknet_1_1__leaf_net706
*306 clknet_1_1__leaf_net707
*307 clknet_1_1__leaf_net724
*308 clknet_1_1__leaf_net742
*309 clknet_1_1__leaf_net743
*310 clknet_1_1__leaf_net763
*311 clknet_1_1__leaf_net859
*312 clknet_1_1__leaf_net875
*313 clknet_1_1__leaf_net881
*314 clknet_1_1__leaf_net924
*315 clknet_1_1__leaf_net925
*316 clknet_4_0_0_clk
*317 clknet_4_10_0_clk
*318 clknet_4_11_0_clk
*319 clknet_4_12_0_clk
*320 clknet_4_13_0_clk
*321 clknet_4_14_0_clk
*322 clknet_4_15_0_clk
*323 clknet_4_1_0_clk
*324 clknet_4_2_0_clk
*325 clknet_4_3_0_clk
*326 clknet_4_4_0_clk
*327 clknet_4_5_0_clk
*328 clknet_4_6_0_clk
*329 clknet_4_7_0_clk
*330 clknet_4_8_0_clk
*331 clknet_4_9_0_clk
*332 net0
*333 net1
*334 net10
*335 net100
*336 net101
*337 net102
*338 net103
*339 net104
*340 net105
*341 net106
*342 net107
*343 net108
*344 net109
*345 net11
*346 net110
*347 net111
*348 net112
*349 net113
*350 net114
*351 net115
*352 net116
*353 net117
*354 net118
*355 net119
*356 net12
*357 net120
*358 net121
*359 net122
*360 net123
*361 net124
*362 net125
*363 net126
*364 net127
*365 net128
*366 net129
*367 net13
*368 net130
*369 net131
*370 net132
*371 net133
*372 net134
*373 net135
*374 net136
*375 net137
*376 net138
*377 net139
*378 net14
*379 net140
*380 net141
*381 net142
*382 net143
*383 net144
*384 net145
*385 net146
*386 net147
*387 net148
*388 net149
*389 net15
*390 net150
*391 net151
*392 net152
*393 net153
*394 net154
*395 net155
*396 net156
*397 net157
*398 net158
*399 net159
*400 net16
*401 net160
*402 net161
*403 net162
*404 net163
*405 net164
*406 net165
*407 net166
*408 net167
*409 net168
*410 net169
*411 net17
*412 net170
*413 net171
*414 net172
*415 net173
*416 net174
*417 net175
*418 net176
*419 net177
*420 net178
*421 net179
*422 net18
*423 net180
*424 net181
*425 net182
*426 net183
*427 net184
*428 net185
*429 net186
*430 net187
*431 net188
*432 net189
*433 net19
*434 net190
*435 net191
*436 net192
*437 net193
*438 net194
*439 net195
*440 net196
*441 net197
*442 net198
*443 net199
*444 net2
*445 net20
*446 net200
*447 net201
*448 net202
*449 net203
*450 net204
*451 net205
*452 net206
*453 net207
*454 net208
*455 net209
*456 net21
*457 net210
*458 net211
*459 net212
*460 net213
*461 net214
*462 net215
*463 net216
*464 net217
*465 net218
*466 net219
*467 net22
*468 net220
*469 net221
*470 net222
*471 net223
*472 net224
*473 net225
*474 net226
*475 net227
*476 net228
*477 net229
*478 net23
*479 net230
*480 net231
*481 net232
*482 net233
*483 net234
*484 net235
*485 net236
*486 net237
*487 net238
*488 net239
*489 net24
*490 net240
*491 net241
*492 net242
*493 net243
*494 net244
*495 net245
*496 net246
*497 net247
*498 net248
*499 net249
*500 net25
*501 net250
*502 net251
*503 net252
*504 net253
*505 net254
*506 net255
*507 net256
*508 net257
*509 net258
*510 net259
*511 net26
*512 net260
*513 net261
*514 net262
*515 net263
*516 net264
*517 net265
*518 net266
*519 net267
*520 net268
*521 net269
*522 net27
*523 net270
*524 net271
*525 net272
*526 net273
*527 net274
*528 net275
*529 net276
*530 net277
*531 net278
*532 net279
*533 net28
*534 net280
*535 net281
*536 net282
*537 net283
*538 net284
*539 net285
*540 net286
*541 net287
*542 net288
*543 net289
*544 net29
*545 net290
*546 net291
*547 net292
*548 net293
*549 net294
*550 net295
*551 net296
*552 net297
*553 net298
*554 net299
*555 net3
*556 net30
*557 net300
*558 net301
*559 net302
*560 net303
*561 net304
*562 net305
*563 net306
*564 net307
*565 net308
*566 net309
*567 net31
*568 net310
*569 net311
*570 net312
*571 net313
*572 net314
*573 net315
*574 net316
*575 net317
*576 net318
*577 net319
*578 net32
*579 net320
*580 net321
*581 net322
*582 net323
*583 net324
*584 net325
*585 net326
*586 net327
*587 net328
*588 net329
*589 net33
*590 net330
*591 net331
*592 net332
*593 net333
*594 net334
*595 net335
*596 net336
*597 net337
*598 net338
*599 net339
*600 net34
*601 net340
*602 net341
*603 net342
*604 net343
*605 net344
*606 net345
*607 net346
*608 net347
*609 net348
*610 net349
*611 net35
*612 net350
*613 net351
*614 net352
*615 net353
*616 net354
*617 net355
*618 net356
*619 net357
*620 net358
*621 net359
*622 net36
*623 net360
*624 net361
*625 net362
*626 net363
*627 net364
*628 net365
*629 net366
*630 net367
*631 net368
*632 net369
*633 net37
*634 net370
*635 net371
*636 net372
*637 net373
*638 net374
*639 net375
*640 net376
*641 net377
*642 net378
*643 net379
*644 net38
*645 net380
*646 net381
*647 net382
*648 net383
*649 net384
*650 net385
*651 net386
*652 net387
*653 net388
*654 net389
*655 net39
*656 net390
*657 net391
*658 net392
*659 net393
*660 net394
*661 net395
*662 net396
*663 net397
*664 net398
*665 net399
*666 net4
*667 net40
*668 net400
*669 net401
*670 net402
*671 net403
*672 net404
*673 net405
*674 net406
*675 net407
*676 net408
*677 net409
*678 net41
*679 net410
*680 net411
*681 net412
*682 net413
*683 net414
*684 net415
*685 net416
*686 net417
*687 net418
*688 net419
*689 net42
*690 net420
*691 net421
*692 net422
*693 net423
*694 net424
*695 net425
*696 net426
*697 net427
*698 net428
*699 net429
*700 net43
*701 net430
*702 net431
*703 net432
*704 net433
*705 net434
*706 net435
*707 net436
*708 net437
*709 net438
*710 net439
*711 net44
*712 net440
*713 net441
*714 net442
*715 net443
*716 net444
*717 net445
*718 net446
*719 net447
*720 net448
*721 net449
*722 net45
*723 net450
*724 net451
*725 net452
*726 net453
*727 net454
*728 net455
*729 net456
*730 net457
*731 net458
*732 net459
*733 net46
*734 net460
*735 net461
*736 net462
*737 net463
*738 net464
*739 net465
*740 net466
*741 net467
*742 net468
*743 net469
*744 net47
*745 net470
*746 net471
*747 net472
*748 net473
*749 net474
*750 net475
*751 net476
*752 net477
*753 net478
*754 net479
*755 net48
*756 net480
*757 net481
*758 net482
*759 net483
*760 net484
*761 net485
*762 net486
*763 net487
*764 net488
*765 net489
*766 net49
*767 net490
*768 net491
*769 net492
*770 net493
*771 net494
*772 net495
*773 net496
*774 net497
*775 net498
*776 net499
*777 net5
*778 net50
*779 net500
*780 net501
*781 net502
*782 net503
*783 net504
*784 net505
*785 net506
*786 net507
*787 net508
*788 net509
*789 net51
*790 net510
*791 net511
*792 net512
*793 net513
*794 net514
*795 net515
*796 net516
*797 net517
*798 net518
*799 net519
*800 net52
*801 net520
*802 net521
*803 net522
*804 net523
*805 net524
*806 net525
*807 net526
*808 net527
*809 net528
*810 net529
*811 net53
*812 net530
*813 net531
*814 net532
*815 net533
*816 net534
*817 net535
*818 net536
*819 net537
*820 net538
*821 net539
*822 net54
*823 net540
*824 net541
*825 net542
*826 net543
*827 net544
*828 net545
*829 net546
*830 net547
*831 net548
*832 net549
*833 net55
*834 net550
*835 net551
*836 net552
*837 net553
*838 net554
*839 net555
*840 net556
*841 net557
*842 net558
*843 net559
*844 net56
*845 net560
*846 net561
*847 net562
*848 net563
*849 net564
*850 net565
*851 net566
*852 net567
*853 net568
*854 net569
*855 net57
*856 net570
*857 net571
*858 net572
*859 net573
*860 net574
*861 net575
*862 net576
*863 net577
*864 net578
*865 net579
*866 net58
*867 net580
*868 net581
*869 net582
*870 net583
*871 net584
*872 net585
*873 net586
*874 net587
*875 net588
*876 net589
*877 net59
*878 net590
*879 net591
*880 net592
*881 net593
*882 net594
*883 net595
*884 net596
*885 net597
*886 net598
*887 net599
*888 net6
*889 net60
*890 net600
*891 net601
*892 net602
*893 net603
*894 net604
*895 net605
*896 net606
*897 net607
*898 net608
*899 net609
*900 net61
*901 net610
*902 net611
*903 net612
*904 net613
*905 net614
*906 net615
*907 net616
*908 net617
*909 net618
*910 net619
*911 net62
*912 net620
*913 net621
*914 net622
*915 net623
*916 net624
*917 net625
*918 net626
*919 net627
*920 net628
*921 net629
*922 net63
*923 net630
*924 net631
*925 net632
*926 net633
*927 net634
*928 net635
*929 net636
*930 net637
*931 net638
*932 net639
*933 net64
*934 net640
*935 net641
*936 net642
*937 net643
*938 net644
*939 net645
*940 net646
*941 net647
*942 net648
*943 net649
*944 net65
*945 net650
*946 net651
*947 net652
*948 net653
*949 net654
*950 net655
*951 net656
*952 net657
*953 net658
*954 net659
*955 net66
*956 net660
*957 net661
*958 net662
*959 net663
*960 net664
*961 net665
*962 net666
*963 net667
*964 net668
*965 net669
*966 net67
*967 net670
*968 net671
*969 net672
*970 net673
*971 net674
*972 net675
*973 net676
*974 net677
*975 net678
*976 net679
*977 net68
*978 net680
*979 net681
*980 net682
*981 net683
*982 net684
*983 net685
*984 net686
*985 net687
*986 net688
*987 net689
*988 net69
*989 net690
*990 net691
*991 net692
*992 net693
*993 net694
*994 net695
*995 net696
*996 net697
*997 net698
*998 net699
*999 net7
*1000 net70
*1001 net700
*1002 net701
*1003 net702
*1004 net703
*1005 net704
*1006 net705
*1007 net706
*1008 net707
*1009 net708
*1010 net709
*1011 net71
*1012 net710
*1013 net711
*1014 net712
*1015 net713
*1016 net714
*1017 net715
*1018 net716
*1019 net717
*1020 net718
*1021 net719
*1022 net72
*1023 net720
*1024 net721
*1025 net722
*1026 net723
*1027 net724
*1028 net725
*1029 net726
*1030 net727
*1031 net728
*1032 net729
*1033 net73
*1034 net730
*1035 net731
*1036 net732
*1037 net733
*1038 net734
*1039 net735
*1040 net736
*1041 net737
*1042 net738
*1043 net739
*1044 net74
*1045 net740
*1046 net741
*1047 net742
*1048 net743
*1049 net744
*1050 net745
*1051 net746
*1052 net747
*1053 net748
*1054 net749
*1055 net75
*1056 net750
*1057 net751
*1058 net752
*1059 net753
*1060 net754
*1061 net755
*1062 net756
*1063 net757
*1064 net758
*1065 net759
*1066 net76
*1067 net760
*1068 net761
*1069 net762
*1070 net763
*1071 net764
*1072 net765
*1073 net766
*1074 net767
*1075 net768
*1076 net769
*1077 net77
*1078 net770
*1079 net771
*1080 net772
*1081 net773
*1082 net774
*1083 net775
*1084 net776
*1085 net777
*1086 net778
*1087 net779
*1088 net78
*1089 net780
*1090 net781
*1091 net782
*1092 net783
*1093 net784
*1094 net785
*1095 net786
*1096 net787
*1097 net788
*1098 net789
*1099 net79
*1100 net790
*1101 net791
*1102 net792
*1103 net793
*1104 net794
*1105 net795
*1106 net796
*1107 net797
*1108 net798
*1109 net799
*1110 net8
*1111 net80
*1112 net800
*1113 net801
*1114 net802
*1115 net803
*1116 net804
*1117 net805
*1118 net806
*1119 net807
*1120 net808
*1121 net809
*1122 net81
*1123 net810
*1124 net811
*1125 net812
*1126 net813
*1127 net814
*1128 net815
*1129 net816
*1130 net817
*1131 net818
*1132 net819
*1133 net82
*1134 net820
*1135 net821
*1136 net822
*1137 net823
*1138 net824
*1139 net825
*1140 net826
*1141 net827
*1142 net828
*1143 net829
*1144 net83
*1145 net830
*1146 net831
*1147 net832
*1148 net833
*1149 net834
*1150 net835
*1151 net836
*1152 net837
*1153 net838
*1154 net839
*1155 net84
*1156 net840
*1157 net841
*1158 net842
*1159 net843
*1160 net844
*1161 net845
*1162 net846
*1163 net847
*1164 net848
*1165 net849
*1166 net85
*1167 net850
*1168 net851
*1169 net852
*1170 net853
*1171 net854
*1172 net855
*1173 net856
*1174 net857
*1175 net858
*1176 net859
*1177 net86
*1178 net860
*1179 net861
*1180 net862
*1181 net863
*1182 net864
*1183 net865
*1184 net866
*1185 net867
*1186 net868
*1187 net869
*1188 net87
*1189 net870
*1190 net871
*1191 net872
*1192 net873
*1193 net874
*1194 net875
*1195 net876
*1196 net877
*1197 net878
*1198 net879
*1199 net88
*1200 net880
*1201 net881
*1202 net882
*1203 net883
*1204 net884
*1205 net885
*1206 net886
*1207 net887
*1208 net888
*1209 net889
*1210 net89
*1211 net890
*1212 net891
*1213 net892
*1214 net893
*1215 net894
*1216 net895
*1217 net896
*1218 net897
*1219 net898
*1220 net899
*1221 net9
*1222 net90
*1223 net900
*1224 net901
*1225 net902
*1226 net903
*1227 net904
*1228 net905
*1229 net906
*1230 net907
*1231 net908
*1232 net909
*1233 net91
*1234 net910
*1235 net911
*1236 net912
*1237 net913
*1238 net914
*1239 net915
*1240 net916
*1241 net917
*1242 net918
*1243 net919
*1244 net92
*1245 net920
*1246 net921
*1247 net922
*1248 net923
*1249 net924
*1250 net925
*1251 net926
*1252 net927
*1253 net928
*1254 net929
*1255 net93
*1256 net930
*1257 net931
*1258 net932
*1259 net933
*1260 net934
*1261 net935
*1262 net936
*1263 net937
*1264 net938
*1265 net939
*1266 net94
*1267 net940
*1268 net941
*1269 net942
*1270 net943
*1271 net944
*1272 net945
*1273 net946
*1274 net947
*1275 net948
*1276 net949
*1277 net95
*1278 net950
*1279 net951
*1280 net952
*1281 net953
*1282 net954
*1283 net955
*1284 net956
*1285 net957
*1286 net958
*1287 net959
*1288 net96
*1289 net960
*1290 net961
*1291 net962
*1292 net963
*1293 net964
*1294 net965
*1295 net966
*1296 net967
*1297 net968
*1298 net969
*1299 net97
*1300 net970
*1301 net971
*1302 net972
*1303 net973
*1304 net974
*1305 net975
*1306 net976
*1307 net977
*1308 net978
*1309 net979
*1310 net98
*1311 net980
*1312 net99
*1313 ANTENNA_1
*1314 ANTENNA_c100_A1
*1315 ANTENNA_c101_A
*1316 ANTENNA_c103_A1
*1317 ANTENNA_c103_S1
*1318 ANTENNA_c104_X
*1319 ANTENNA_c105_A0
*1320 ANTENNA_c105_A1
*1321 ANTENNA_c105_S0
*1322 ANTENNA_c106_A0
*1323 ANTENNA_c106_A1
*1324 ANTENNA_c106_A3
*1325 ANTENNA_c106_S0
*1326 ANTENNA_c106_X
*1327 ANTENNA_c107_B1
*1328 ANTENNA_c107_C1
*1329 ANTENNA_c108_B
*1330 ANTENNA_c108_X
*1331 ANTENNA_c109_A1
*1332 ANTENNA_c109_S1
*1333 ANTENNA_c110_A
*1334 ANTENNA_c110_B
*1335 ANTENNA_c111_A
*1336 ANTENNA_c111_B
*1337 ANTENNA_c112_B
*1338 ANTENNA_c112_C_N
*1339 ANTENNA_c113_A
*1340 ANTENNA_c114_A
*1341 ANTENNA_c114_B
*1342 ANTENNA_c115_B1
*1343 ANTENNA_c115_X
*1344 ANTENNA_c116_A2
*1345 ANTENNA_c116_B1
*1346 ANTENNA_c116_B2
*1347 ANTENNA_c116_C1
*1348 ANTENNA_c117_B
*1349 ANTENNA_c119_A1
*1350 ANTENNA_c119_B1
*1351 ANTENNA_c119_C1
*1352 ANTENNA_c120_B_N
*1353 ANTENNA_c122_B1
*1354 ANTENNA_c122_C1
*1355 ANTENNA_c124_A1
*1356 ANTENNA_c125_B2
*1357 ANTENNA_c128_X
*1358 ANTENNA_c129_C1
*1359 ANTENNA_c130_A1
*1360 ANTENNA_c130_S1
*1361 ANTENNA_c131_A2
*1362 ANTENNA_c132_B_N
*1363 ANTENNA_c132_Y
*1364 ANTENNA_c133_A_N
*1365 ANTENNA_c134_B
*1366 ANTENNA_c134_Y
*1367 ANTENNA_c135_B
*1368 ANTENNA_c136_Y
*1369 ANTENNA_c137_A
*1370 ANTENNA_c137_C
*1371 ANTENNA_c137_Y
*1372 ANTENNA_c138_B
*1373 ANTENNA_c139_A_N
*1374 ANTENNA_c140_B
*1375 ANTENNA_c141_B_N
*1376 ANTENNA_c143_A2
*1377 ANTENNA_c144_B
*1378 ANTENNA_c144_Y
*1379 ANTENNA_c145_Y
*1380 ANTENNA_c146_C
*1381 ANTENNA_c146_Y
*1382 ANTENNA_c147_B
*1383 ANTENNA_c147_C_N
*1384 ANTENNA_c148_A
*1385 ANTENNA_c148_B
*1386 ANTENNA_c148_C_N
*1387 ANTENNA_c148_X
*1388 ANTENNA_c149_B1
*1389 ANTENNA_c149_C1
*1390 ANTENNA_c150_A
*1391 ANTENNA_c151_A0
*1392 ANTENNA_c151_A2
*1393 ANTENNA_c151_S1
*1394 ANTENNA_c151_X
*1395 ANTENNA_c153_A
*1396 ANTENNA_c153_B
*1397 ANTENNA_c154_B
*1398 ANTENNA_c154_X
*1399 ANTENNA_c155_B_N
*1400 ANTENNA_c155_X
*1401 ANTENNA_c156_C
*1402 ANTENNA_c157_B
*1403 ANTENNA_c158_A
*1404 ANTENNA_c159_B_N
*1405 ANTENNA_c160_B
*1406 ANTENNA_c161_B
*1407 ANTENNA_c162_A_N
*1408 ANTENNA_c162_B
*1409 ANTENNA_c163_B1
*1410 ANTENNA_c163_Y
*1411 ANTENNA_c164_B2
*1412 ANTENNA_c164_C1
*1413 ANTENNA_c165_B
*1414 ANTENNA_c166_S0
*1415 ANTENNA_c167_A
*1416 ANTENNA_c168_A_N
*1417 ANTENNA_c168_Y
*1418 ANTENNA_c169_A
*1419 ANTENNA_c169_B
*1420 ANTENNA_c170_C1
*1421 ANTENNA_c172_A2
*1422 ANTENNA_c172_S0
*1423 ANTENNA_c172_S1
*1424 ANTENNA_c174_A0
*1425 ANTENNA_c175_Y
*1426 ANTENNA_c176_X
*1427 ANTENNA_c177_B_N
*1428 ANTENNA_c178_C
*1429 ANTENNA_c179_A
*1430 ANTENNA_c179_B
*1431 ANTENNA_c179_X
*1432 ANTENNA_c181_B
*1433 ANTENNA_c182_A
*1434 ANTENNA_c183_A
*1435 ANTENNA_c184_Y
*1436 ANTENNA_c185_B
*1437 ANTENNA_c186_S0
*1438 ANTENNA_c187_A2
*1439 ANTENNA_c187_B1
*1440 ANTENNA_c188_A2
*1441 ANTENNA_c190_C
*1442 ANTENNA_c191_Y
*1443 ANTENNA_c192_A2
*1444 ANTENNA_c192_C1
*1445 ANTENNA_c193_B2
*1446 ANTENNA_c193_Y
*1447 ANTENNA_c195_B
*1448 ANTENNA_c195_C
*1449 ANTENNA_c195_X
*1450 ANTENNA_c196_S1
*1451 ANTENNA_c197_A2
*1452 ANTENNA_c198_B
*1453 ANTENNA_c198_X
*1454 ANTENNA_c199_A
*1455 ANTENNA_c199_X
*1456 ANTENNA_c200_B_N
*1457 ANTENNA_c200_X
*1458 ANTENNA_c202_B
*1459 ANTENNA_c203_A_N
*1460 ANTENNA_c204_B_N
*1461 ANTENNA_c205_A
*1462 ANTENNA_c206_B
*1463 ANTENNA_c206_C
*1464 ANTENNA_c208_C1
*1465 ANTENNA_c209_B1
*1466 ANTENNA_c209_B2
*1467 ANTENNA_c210_B_N
*1468 ANTENNA_c211_A2
*1469 ANTENNA_c211_B1
*1470 ANTENNA_c212_A
*1471 ANTENNA_c213_CLK_N
*1472 ANTENNA_c213_Q_N
*1473 ANTENNA_c215_A2
*1474 ANTENNA_c215_S0
*1475 ANTENNA_c215_S1
*1476 ANTENNA_c219_A1
*1477 ANTENNA_c219_S0
*1478 ANTENNA_c220_A
*1479 ANTENNA_c221_A
*1480 ANTENNA_c221_B
*1481 ANTENNA_c222_B
*1482 ANTENNA_c223_C
*1483 ANTENNA_c225_B
*1484 ANTENNA_c229_Y
*1485 ANTENNA_c230_B
*1486 ANTENNA_c231_C
*1487 ANTENNA_c233_A
*1488 ANTENNA_c233_Y
*1489 ANTENNA_c236_C
*1490 ANTENNA_c237_B1
*1491 ANTENNA_c238_B
*1492 ANTENNA_c240_A3
*1493 ANTENNA_c240_S0
*1494 ANTENNA_c241_A0
*1495 ANTENNA_c242_A
*1496 ANTENNA_c243_B
*1497 ANTENNA_c243_C
*1498 ANTENNA_c244_B
*1499 ANTENNA_c246_A1
*1500 ANTENNA_c246_B1
*1501 ANTENNA_c247_A
*1502 ANTENNA_c247_C
*1503 ANTENNA_c248_CLK_N
*1504 ANTENNA_c248_RESET_B
*1505 ANTENNA_c248_SCE
*1506 ANTENNA_c249_A
*1507 ANTENNA_c250_A1
*1508 ANTENNA_c250_A2
*1509 ANTENNA_c250_B1
*1510 ANTENNA_c253_A0
*1511 ANTENNA_c254_B2
*1512 ANTENNA_c257_C1
*1513 ANTENNA_c258_A1
*1514 ANTENNA_c258_A2
*1515 ANTENNA_c260_CLK
*1516 ANTENNA_c261_A2
*1517 ANTENNA_c263_A3
*1518 ANTENNA_c264_C
*1519 ANTENNA_c264_Y
*1520 ANTENNA_c268_B
*1521 ANTENNA_c270_B
*1522 ANTENNA_c273_X
*1523 ANTENNA_c274_X
*1524 ANTENNA_c275_X
*1525 ANTENNA_c278_A
*1526 ANTENNA_c278_B
*1527 ANTENNA_c278_C
*1528 ANTENNA_c279_X
*1529 ANTENNA_c280_B
*1530 ANTENNA_c281_B
*1531 ANTENNA_c281_Y
*1532 ANTENNA_c282_A0
*1533 ANTENNA_c282_A3
*1534 ANTENNA_c282_S0
*1535 ANTENNA_c283_C
*1536 ANTENNA_c284_A1
*1537 ANTENNA_c285_S0
*1538 ANTENNA_c285_X
*1539 ANTENNA_c286_A2
*1540 ANTENNA_c288_B
*1541 ANTENNA_c289_B
*1542 ANTENNA_c290_B1
*1543 ANTENNA_c293_A2
*1544 ANTENNA_c294_B
*1545 ANTENNA_c295_B
*1546 ANTENNA_c296_B
*1547 ANTENNA_c296_Y
*1548 ANTENNA_c297_C1
*1549 ANTENNA_c298_Y
*1550 ANTENNA_c299_B1
*1551 ANTENNA_c299_X
*1552 ANTENNA_c301_S0
*1553 ANTENNA_c302_A1
*1554 ANTENNA_c302_A2
*1555 ANTENNA_c302_X
*1556 ANTENNA_c303_B_N
*1557 ANTENNA_c304_A2
*1558 ANTENNA_c304_X
*1559 ANTENNA_c305_A0
*1560 ANTENNA_c305_S0
*1561 ANTENNA_c306_A3
*1562 ANTENNA_c306_S1
*1563 ANTENNA_c306_X
*1564 ANTENNA_c307_A1
*1565 ANTENNA_c307_S0
*1566 ANTENNA_c308_B
*1567 ANTENNA_c308_C
*1568 ANTENNA_c308_X
*1569 ANTENNA_c309_C_N
*1570 ANTENNA_c310_C
*1571 ANTENNA_c310_X
*1572 ANTENNA_c311_B1
*1573 ANTENNA_c312_A2
*1574 ANTENNA_c312_B2
*1575 ANTENNA_c312_C1
*1576 ANTENNA_c313_A
*1577 ANTENNA_c313_C
*1578 ANTENNA_c314_B
*1579 ANTENNA_c314_C_N
*1580 ANTENNA_c316_Y
*1581 ANTENNA_c317_A2
*1582 ANTENNA_c317_C1
*1583 ANTENNA_c318_D
*1584 ANTENNA_c318_Q
*1585 ANTENNA_c318_Q_N
*1586 ANTENNA_c318_RESET_B
*1587 ANTENNA_c319_A1
*1588 ANTENNA_c319_B1
*1589 ANTENNA_c320_B2
*1590 ANTENNA_c320_C1
*1591 ANTENNA_c321_D
*1592 ANTENNA_c321_SCD
*1593 ANTENNA_c321_SCE
*1594 ANTENNA_c322_A2
*1595 ANTENNA_c322_B1
*1596 ANTENNA_c322_B2
*1597 ANTENNA_c324_A1
*1598 ANTENNA_c324_C1
*1599 ANTENNA_c324_Y
*1600 ANTENNA_c325_A1
*1601 ANTENNA_c325_S0
*1602 ANTENNA_c325_S1
*1603 ANTENNA_c325_X
*1604 ANTENNA_c326_A2
*1605 ANTENNA_c326_B1
*1606 ANTENNA_c326_C1
*1607 ANTENNA_c327_A
*1608 ANTENNA_c327_B
*1609 ANTENNA_c327_X
*1610 ANTENNA_c328_A0
*1611 ANTENNA_c328_A1
*1612 ANTENNA_c328_A2
*1613 ANTENNA_c328_S0
*1614 ANTENNA_c329_A1
*1615 ANTENNA_c329_A3
*1616 ANTENNA_c329_S0
*1617 ANTENNA_c330_A
*1618 ANTENNA_c330_B
*1619 ANTENNA_c330_C
*1620 ANTENNA_c331_X
*1621 ANTENNA_c332_SCE
*1622 ANTENNA_c335_C_N
*1623 ANTENNA_c336_A_N
*1624 ANTENNA_c337_B
*1625 ANTENNA_c338_A
*1626 ANTENNA_c340_A1
*1627 ANTENNA_c340_A2
*1628 ANTENNA_c340_A3
*1629 ANTENNA_c340_S1
*1630 ANTENNA_c342_A1
*1631 ANTENNA_c342_A3
*1632 ANTENNA_c342_S1
*1633 ANTENNA_c343_B
*1634 ANTENNA_c345_A2
*1635 ANTENNA_c345_B1
*1636 ANTENNA_c346_B1
*1637 ANTENNA_c347_B1
*1638 ANTENNA_c348_B1
*1639 ANTENNA_c349_A3
*1640 ANTENNA_c349_S0
*1641 ANTENNA_c349_S1
*1642 ANTENNA_c350_A0
*1643 ANTENNA_c350_A3
*1644 ANTENNA_c350_S0
*1645 ANTENNA_c350_S1
*1646 ANTENNA_c351_A1
*1647 ANTENNA_c351_A3
*1648 ANTENNA_c351_S0
*1649 ANTENNA_c352_B
*1650 ANTENNA_c352_C
*1651 ANTENNA_c353_A1
*1652 ANTENNA_c353_A2
*1653 ANTENNA_c353_B1
*1654 ANTENNA_c353_Y
*1655 ANTENNA_c354_Y
*1656 ANTENNA_c356_B1
*1657 ANTENNA_c356_C1
*1658 ANTENNA_c356_X
*1659 ANTENNA_c357_A
*1660 ANTENNA_c357_B
*1661 ANTENNA_c357_C_N
*1662 ANTENNA_c359_C
*1663 ANTENNA_c360_C
*1664 ANTENNA_c361_C
*1665 ANTENNA_c362_A
*1666 ANTENNA_c362_B
*1667 ANTENNA_c364_B1
*1668 ANTENNA_c364_C1
*1669 ANTENNA_c365_B2
*1670 ANTENNA_c365_C1
*1671 ANTENNA_c367_A
*1672 ANTENNA_c369_CLK_N
*1673 ANTENNA_c369_SCE
*1674 ANTENNA_c369_SET_B
*1675 ANTENNA_c370_A2
*1676 ANTENNA_c371_C1
*1677 ANTENNA_c372_A0
*1678 ANTENNA_c372_A2
*1679 ANTENNA_c372_S0
*1680 ANTENNA_c373_A2
*1681 ANTENNA_c373_A3
*1682 ANTENNA_c392_A3
*1683 ANTENNA_c392_S1
*1684 ANTENNA_c393_A0
*1685 ANTENNA_c393_A1
*1686 ANTENNA_c393_A2
*1687 ANTENNA_c393_A3
*1688 ANTENNA_c393_S0
*1689 ANTENNA_c393_S1
*1690 ANTENNA_c394_A2
*1691 ANTENNA_c395_A1
*1692 ANTENNA_c395_S1
*1693 ANTENNA_c396_X
*1694 ANTENNA_c397_A
*1695 ANTENNA_c398_A_N
*1696 ANTENNA_c398_B
*1697 ANTENNA_c399_A
*1698 ANTENNA_c399_B
*1699 ANTENNA_c399_X
*1700 ANTENNA_c400_A
*1701 ANTENNA_c400_B
*1702 ANTENNA_c400_Y
*1703 ANTENNA_c401_A1
*1704 ANTENNA_c401_A2
*1705 ANTENNA_c401_B1
*1706 ANTENNA_c403_C1
*1707 ANTENNA_c404_C_N
*1708 ANTENNA_c405_B
*1709 ANTENNA_c406_B
*1710 ANTENNA_c407_B
*1711 ANTENNA_c407_C
*1712 ANTENNA_c407_Y
*1713 ANTENNA_c409_A3
*1714 ANTENNA_c409_S1
*1715 ANTENNA_c409_X
*1716 ANTENNA_c410_A3
*1717 ANTENNA_c410_S0
*1718 ANTENNA_c410_S1
*1719 ANTENNA_c411_A1
*1720 ANTENNA_c411_A3
*1721 ANTENNA_c412_A1
*1722 ANTENNA_c412_A3
*1723 ANTENNA_c414_A0
*1724 ANTENNA_c415_A3
*1725 ANTENNA_c415_S0
*1726 ANTENNA_c416_A3
*1727 ANTENNA_c416_S0
*1728 ANTENNA_c418_B
*1729 ANTENNA_c418_Y
*1730 ANTENNA_c419_B
*1731 ANTENNA_c419_C_N
*1732 ANTENNA_c420_B
*1733 ANTENNA_c421_A
*1734 ANTENNA_c422_B
*1735 ANTENNA_c423_B
*1736 ANTENNA_c425_A
*1737 ANTENNA_c427_A2
*1738 ANTENNA_c427_S0
*1739 ANTENNA_c428_X
*1740 ANTENNA_c430_B
*1741 ANTENNA_c431_A1
*1742 ANTENNA_c432_CLK
*1743 ANTENNA_c432_Q
*1744 ANTENNA_c432_Q_N
*1745 ANTENNA_c433_A2
*1746 ANTENNA_c433_C1
*1747 ANTENNA_c434_X
*1748 ANTENNA_c435_A2
*1749 ANTENNA_c435_A3
*1750 ANTENNA_c435_S0
*1751 ANTENNA_c436_A1
*1752 ANTENNA_c436_S0
*1753 ANTENNA_c437_A1
*1754 ANTENNA_c438_B1
*1755 ANTENNA_c438_B2
*1756 ANTENNA_c440_A2
*1757 ANTENNA_c440_B1
*1758 ANTENNA_c440_B2
*1759 ANTENNA_c440_C1
*1760 ANTENNA_c441_A2
*1761 ANTENNA_c441_B1
*1762 ANTENNA_c442_B1
*1763 ANTENNA_c442_C1
*1764 ANTENNA_c443_B1
*1765 ANTENNA_c443_C1
*1766 ANTENNA_c444_A1
*1767 ANTENNA_c444_B1
*1768 ANTENNA_c444_C1
*1769 ANTENNA_c445_Y
*1770 ANTENNA_c447_B1
*1771 ANTENNA_c447_B2
*1772 ANTENNA_c447_C1
*1773 ANTENNA_c448_B
*1774 ANTENNA_c448_Y
*1775 ANTENNA_c449_RESET_B
*1776 ANTENNA_c449_SCD
*1777 ANTENNA_c449_SCE
*1778 ANTENNA_c450_CLK_N
*1779 ANTENNA_c450_D
*1780 ANTENNA_c450_SCD
*1781 ANTENNA_c451_A2
*1782 ANTENNA_c451_A3
*1783 ANTENNA_c453_S0
*1784 ANTENNA_c454_S1
*1785 ANTENNA_c455_A2
*1786 ANTENNA_c456_B1
*1787 ANTENNA_c457_A1
*1788 ANTENNA_c457_A3
*1789 ANTENNA_c457_X
*1790 ANTENNA_c458_A1
*1791 ANTENNA_c458_A3
*1792 ANTENNA_c460_S1
*1793 ANTENNA_c461_A0
*1794 ANTENNA_c461_A2
*1795 ANTENNA_c461_A3
*1796 ANTENNA_c461_S0
*1797 ANTENNA_c462_A_N
*1798 ANTENNA_c462_C
*1799 ANTENNA_c463_A
*1800 ANTENNA_c464_C_N
*1801 ANTENNA_c464_X
*1802 ANTENNA_c465_A
*1803 ANTENNA_c466_B
*1804 ANTENNA_c467_B
*1805 ANTENNA_c468_B
*1806 ANTENNA_c469_B
*1807 ANTENNA_c469_C
*1808 ANTENNA_c470_C
*1809 ANTENNA_c470_X
*1810 ANTENNA_c471_A1
*1811 ANTENNA_c471_A2
*1812 ANTENNA_c471_B1
*1813 ANTENNA_c473_A0
*1814 ANTENNA_c473_A1
*1815 ANTENNA_c473_A2
*1816 ANTENNA_c473_S0
*1817 ANTENNA_c476_C
*1818 ANTENNA_c479_A
*1819 ANTENNA_c479_C
*1820 ANTENNA_c481_C
*1821 ANTENNA_c481_X
*1822 ANTENNA_c482_A1
*1823 ANTENNA_c482_A3
*1824 ANTENNA_c484_A1
*1825 ANTENNA_c484_B1
*1826 ANTENNA_c485_A0
*1827 ANTENNA_c485_A1
*1828 ANTENNA_c485_A2