*SPEF "ieee 1481-1999"
*DESIGN "netlist_4"
*DATE "20:12:22 Tuesday July 23, 2024"
*VENDOR "The OpenROAD Project"
*PROGRAM "OpenROAD"
*VERSION "d423155d69de7f683a23f6916ead418a615ad4ad"
*DESIGN_FLOW "NAME_SCOPE LOCAL" "PIN_CAP NONE"
*DIVIDER /
*DELIMITER :
*BUS_DELIMITER []
*T_UNIT 1 NS
*C_UNIT 1 PF
*R_UNIT 1 OHM
*L_UNIT 1 HENRY

*NAME_MAP
*3 clk
*4 in0
*5 in1
*6 in10
*7 in11
*8 in12
*9 in13
*10 in14
*11 in15
*12 in16
*13 in17
*14 in18
*15 in19
*16 in2
*17 in20
*18 in21
*19 in22
*20 in23
*21 in24
*22 in25
*23 in26
*24 in27
*25 in28
*26 in29
*27 in3
*28 in30
*29 in31
*30 in32
*31 in33
*32 in34
*33 in35
*34 in36
*35 in37
*36 in38
*37 in39
*38 in4
*39 in40
*40 in41
*41 in42
*42 in43
*43 in44
*44 in45
*45 in46
*46 in47
*47 in48
*48 in49
*49 in5
*50 in50
*51 in51
*52 in6
*53 in7
*54 in8
*55 in9
*56 out0
*57 out1
*58 out10
*59 out11
*60 out12
*61 out13
*62 out14
*63 out15
*64 out16
*65 out17
*66 out18
*67 out19
*68 out2
*69 out20
*70 out21
*71 out22
*72 out23
*73 out24
*74 out25
*75 out26
*76 out27
*77 out28
*78 out29
*79 out3
*80 out30
*81 out31
*82 out32
*83 out33
*84 out34
*85 out35
*86 out36
*87 out37
*88 out38
*89 out39
*90 out4
*91 out40
*92 out41
*93 out42
*94 out43
*95 out44
*96 out45
*97 out46
*98 out47
*99 out48
*100 out49
*101 out5
*102 out50
*103 out51
*104 out6
*105 out7
*106 out8
*107 out9
*108 rst
*109 clknet_0_clk
*110 clknet_0_net269
*111 clknet_0_net270
*112 clknet_0_net371
*113 clknet_0_net373
*114 clknet_0_net374
*115 clknet_0_net377
*116 clknet_0_net381
*117 clknet_0_net384
*118 clknet_0_net385
*119 clknet_0_net388
*120 clknet_0_net389
*121 clknet_0_net486
*122 clknet_0_net489
*123 clknet_0_net491
*124 clknet_0_net500
*125 clknet_0_net507
*126 clknet_0_net513
*127 clknet_0_net581
*128 clknet_0_net650
*129 clknet_0_net651
*130 clknet_0_net749
*131 clknet_0_net750
*132 clknet_1_0__leaf_net269
*133 clknet_1_0__leaf_net270
*134 clknet_1_0__leaf_net371
*135 clknet_1_0__leaf_net373
*136 clknet_1_0__leaf_net374
*137 clknet_1_0__leaf_net377
*138 clknet_1_0__leaf_net381
*139 clknet_1_0__leaf_net384
*140 clknet_1_0__leaf_net385
*141 clknet_1_0__leaf_net388
*142 clknet_1_0__leaf_net389
*143 clknet_1_0__leaf_net486
*144 clknet_1_0__leaf_net489
*145 clknet_1_0__leaf_net491
*146 clknet_1_0__leaf_net500
*147 clknet_1_0__leaf_net507
*148 clknet_1_0__leaf_net513
*149 clknet_1_0__leaf_net581
*150 clknet_1_0__leaf_net650
*151 clknet_1_0__leaf_net651
*152 clknet_1_0__leaf_net749
*153 clknet_1_0__leaf_net750
*154 clknet_1_1__leaf_net269
*155 clknet_1_1__leaf_net270
*156 clknet_1_1__leaf_net371
*157 clknet_1_1__leaf_net373
*158 clknet_1_1__leaf_net374
*159 clknet_1_1__leaf_net377
*160 clknet_1_1__leaf_net381
*161 clknet_1_1__leaf_net384
*162 clknet_1_1__leaf_net385
*163 clknet_1_1__leaf_net388
*164 clknet_1_1__leaf_net389
*165 clknet_1_1__leaf_net486
*166 clknet_1_1__leaf_net489
*167 clknet_1_1__leaf_net491
*168 clknet_1_1__leaf_net500
*169 clknet_1_1__leaf_net507
*170 clknet_1_1__leaf_net513
*171 clknet_1_1__leaf_net581
*172 clknet_1_1__leaf_net650
*173 clknet_1_1__leaf_net651
*174 clknet_1_1__leaf_net749
*175 clknet_1_1__leaf_net750
*176 clknet_4_0_0_clk
*177 clknet_4_10_0_clk
*178 clknet_4_11_0_clk
*179 clknet_4_12_0_clk
*180 clknet_4_13_0_clk
*181 clknet_4_14_0_clk
*182 clknet_4_15_0_clk
*183 clknet_4_1_0_clk
*184 clknet_4_2_0_clk
*185 clknet_4_3_0_clk
*186 clknet_4_4_0_clk
*187 clknet_4_5_0_clk
*188 clknet_4_6_0_clk
*189 clknet_4_7_0_clk
*190 clknet_4_8_0_clk
*191 clknet_4_9_0_clk
*192 net0
*193 net1
*194 net10
*195 net100
*196 net101
*197 net102
*198 net103
*199 net104
*200 net105
*201 net106
*202 net107
*203 net108
*204 net109
*205 net11
*206 net110
*207 net111
*208 net112
*209 net113
*210 net114
*211 net115
*212 net116
*213 net117
*214 net118
*215 net119
*216 net12
*217 net120
*218 net121
*219 net122
*220 net123
*221 net124
*222 net125
*223 net126
*224 net127
*225 net128
*226 net129
*227 net13
*228 net130
*229 net131
*230 net132
*231 net133
*232 net134
*233 net135
*234 net136
*235 net137
*236 net138
*237 net139
*238 net14
*239 net140
*240 net141
*241 net142
*242 net143
*243 net144
*244 net145
*245 net146
*246 net147
*247 net148
*248 net149
*249 net15
*250 net150
*251 net151
*252 net152
*253 net153
*254 net154
*255 net155
*256 net156
*257 net157
*258 net158
*259 net159
*260 net16
*261 net160
*262 net161
*263 net162
*264 net163
*265 net164
*266 net165
*267 net166
*268 net167
*269 net168
*270 net169
*271 net17
*272 net170
*273 net171
*274 net172
*275 net173
*276 net174
*277 net175
*278 net176
*279 net177
*280 net178
*281 net179
*282 net18
*283 net180
*284 net181
*285 net182
*286 net183
*287 net184
*288 net185
*289 net186
*290 net187
*291 net188
*292 net189
*293 net19
*294 net190
*295 net191
*296 net192
*297 net193
*298 net194
*299 net195
*300 net196
*301 net197
*302 net198
*303 net199
*304 net2
*305 net20
*306 net200
*307 net201
*308 net202
*309 net203
*310 net204
*311 net205
*312 net206
*313 net207
*314 net208
*315 net209
*316 net21
*317 net210
*318 net211
*319 net212
*320 net213
*321 net214
*322 net215
*323 net216
*324 net217
*325 net218
*326 net219
*327 net22
*328 net220
*329 net221
*330 net222
*331 net223
*332 net224
*333 net225
*334 net226
*335 net227
*336 net228
*337 net229
*338 net23
*339 net230
*340 net231
*341 net232
*342 net233
*343 net234
*344 net235
*345 net236
*346 net237
*347 net238
*348 net239
*349 net24
*350 net240
*351 net241
*352 net242
*353 net243
*354 net244
*355 net245
*356 net246
*357 net247
*358 net248
*359 net249
*360 net25
*361 net250
*362 net251
*363 net252
*364 net253
*365 net254
*366 net255
*367 net256
*368 net257
*369 net258
*370 net259
*371 net26
*372 net260
*373 net261
*374 net262
*375 net263
*376 net264
*377 net265
*378 net266
*379 net267
*380 net268
*381 net269
*382 net27
*383 net270
*384 net271
*385 net272
*386 net273
*387 net274
*388 net275
*389 net276
*390 net277
*391 net278
*392 net279
*393 net28
*394 net280
*395 net281
*396 net282
*397 net283
*398 net284
*399 net285
*400 net286
*401 net287
*402 net288
*403 net289
*404 net29
*405 net290
*406 net291
*407 net292
*408 net293
*409 net294
*410 net295
*411 net296
*412 net297
*413 net298
*414 net299
*415 net3
*416 net30
*417 net300
*418 net301
*419 net302
*420 net303
*421 net304
*422 net305
*423 net306
*424 net307
*425 net308
*426 net309
*427 net31
*428 net310
*429 net311
*430 net312
*431 net313
*432 net314
*433 net315
*434 net316
*435 net317
*436 net318
*437 net319
*438 net32
*439 net320
*440 net321
*441 net322
*442 net323
*443 net324
*444 net325
*445 net326
*446 net327
*447 net328
*448 net329
*449 net33
*450 net330
*451 net331
*452 net332
*453 net333
*454 net334
*455 net335
*456 net336
*457 net337
*458 net338
*459 net339
*460 net34
*461 net340
*462 net341
*463 net342
*464 net343
*465 net344
*466 net345
*467 net346
*468 net347
*469 net348
*470 net349
*471 net35
*472 net350
*473 net351
*474 net352
*475 net353
*476 net354
*477 net355
*478 net356
*479 net357
*480 net358
*481 net359
*482 net36
*483 net360
*484 net361
*485 net362
*486 net363
*487 net364
*488 net365
*489 net366
*490 net367
*491 net368
*492 net369
*493 net37
*494 net370
*495 net371
*496 net372
*497 net373
*498 net374
*499 net375
*500 net376
*501 net377
*502 net378
*503 net379
*504 net38
*505 net380
*506 net381
*507 net382
*508 net383
*509 net384
*510 net385
*511 net386
*512 net387
*513 net388
*514 net389
*515 net39
*516 net390
*517 net391
*518 net392
*519 net393
*520 net394
*521 net395
*522 net396
*523 net397
*524 net398
*525 net399
*526 net4
*527 net40
*528 net400
*529 net401
*530 net402
*531 net403
*532 net404
*533 net405
*534 net406
*535 net407
*536 net408
*537 net409
*538 net41
*539 net410
*540 net411
*541 net412
*542 net413
*543 net414
*544 net415
*545 net416
*546 net417
*547 net418
*548 net419
*549 net42
*550 net420
*551 net421
*552 net422
*553 net423
*554 net424
*555 net425
*556 net426
*557 net427
*558 net428
*559 net429
*560 net43
*561 net430
*562 net431
*563 net432
*564 net433
*565 net434
*566 net435
*567 net436
*568 net437
*569 net438
*570 net439
*571 net44
*572 net440
*573 net441
*574 net442
*575 net443
*576 net444
*577 net445
*578 net446
*579 net447
*580 net448
*581 net449
*582 net45
*583 net450
*584 net451
*585 net452
*586 net453
*587 net454
*588 net455
*589 net456
*590 net457
*591 net458
*592 net459
*593 net46
*594 net460
*595 net461
*596 net462
*597 net463
*598 net464
*599 net465
*600 net466
*601 net467
*602 net468
*603 net469
*604 net47
*605 net470
*606 net471
*607 net472
*608 net473
*609 net474
*610 net475
*611 net476
*612 net477
*613 net478
*614 net479
*615 net48
*616 net480
*617 net481
*618 net482
*619 net483
*620 net484
*621 net485
*622 net486
*623 net487
*624 net488
*625 net489
*626 net49
*627 net490
*628 net491
*629 net492
*630 net493
*631 net494
*632 net495
*633 net496
*634 net497
*635 net498
*636 net499
*637 net5
*638 net50
*639 net500
*640 net501
*641 net502
*642 net503
*643 net504
*644 net505
*645 net506
*646 net507
*647 net508
*648 net509
*649 net51
*650 net510
*651 net511
*652 net512
*653 net513
*654 net514
*655 net515
*656 net516
*657 net517
*658 net518
*659 net519
*660 net52
*661 net520
*662 net521
*663 net522
*664 net523
*665 net524
*666 net525
*667 net526
*668 net527
*669 net528
*670 net529
*671 net53
*672 net530
*673 net531
*674 net532
*675 net533
*676 net534
*677 net535
*678 net536
*679 net537
*680 net538
*681 net539
*682 net54
*683 net540
*684 net541
*685 net542
*686 net543
*687 net544
*688 net545
*689 net546
*690 net547
*691 net548
*692 net549
*693 net55
*694 net550
*695 net551
*696 net552
*697 net553
*698 net554
*699 net555
*700 net556
*701 net557
*702 net558
*703 net559
*704 net56
*705 net560
*706 net561
*707 net562
*708 net563
*709 net564
*710 net565
*711 net566
*712 net567
*713 net568
*714 net569
*715 net57
*716 net570
*717 net571
*718 net572
*719 net573
*720 net574
*721 net575
*722 net576
*723 net577
*724 net578
*725 net579
*726 net58
*727 net580
*728 net581
*729 net582
*730 net583
*731 net584
*732 net585
*733 net586
*734 net587
*735 net588
*736 net589
*737 net59
*738 net590
*739 net591
*740 net592
*741 net593
*742 net594
*743 net595
*744 net596
*745 net597
*746 net598
*747 net599
*748 net6
*749 net60
*750 net600
*751 net601
*752 net602
*753 net603
*754 net604
*755 net605
*756 net606
*757 net607
*758 net608
*759 net609
*760 net61
*761 net610
*762 net611
*763 net612
*764 net613
*765 net614
*766 net615
*767 net616
*768 net617
*769 net618
*770 net619
*771 net62
*772 net620
*773 net621
*774 net622
*775 net623
*776 net624
*777 net625
*778 net626
*779 net627
*780 net628
*781 net629
*782 net63
*783 net630
*784 net631
*785 net632
*786 net633
*787 net634
*788 net635
*789 net636
*790 net637
*791 net638
*792 net639
*793 net64
*794 net640
*795 net641
*796 net642
*797 net643
*798 net644
*799 net645
*800 net646
*801 net647
*802 net648
*803 net649
*804 net65
*805 net650
*806 net651
*807 net652
*808 net653
*809 net654
*810 net655
*811 net656
*812 net657
*813 net658
*814 net659
*815 net66
*816 net660
*817 net661
*818 net662
*819 net663
*820 net664
*821 net665
*822 net666
*823 net667
*824 net668
*825 net669
*826 net67
*827 net670
*828 net671
*829 net672
*830 net673
*831 net674
*832 net675
*833 net676
*834 net677
*835 net678
*836 net679
*837 net68
*838 net680
*839 net681
*840 net682
*841 net683
*842 net684
*843 net685
*844 net686
*845 net687
*846 net688
*847 net689
*848 net69
*849 net690
*850 net691
*851 net692
*852 net693
*853 net694
*854 net695
*855 net696
*856 net697
*857 net698
*858 net699
*859 net7
*860 net70
*861 net700
*862 net701
*863 net702
*864 net703
*865 net704
*866 net705
*867 net706
*868 net707
*869 net708
*870 net709
*871 net71
*872 net710
*873 net711
*874 net712
*875 net713
*876 net714
*877 net715
*878 net716
*879 net717
*880 net718
*881 net719
*882 net72
*883 net720
*884 net721
*885 net722
*886 net723
*887 net724
*888 net725
*889 net726
*890 net727
*891 net728
*892 net729
*893 net73
*894 net730
*895 net731
*896 net732
*897 net733
*898 net734
*899 net735
*900 net736
*901 net737
*902 net738
*903 net739
*904 net74
*905 net740
*906 net741
*907 net742
*908 net743
*909 net744
*910 net745
*911 net746
*912 net747
*913 net748
*914 net749
*915 net75
*916 net750
*917 net751
*918 net752
*919 net753
*920 net754
*921 net755
*922 net756
*923 net757
*924 net758
*925 net759
*926 net76
*927 net760
*928 net761
*929 net762
*930 net763
*931 net764
*932 net765
*933 net766
*934 net767
*935 net768
*936 net769
*937 net77
*938 net770
*939 net771
*940 net772
*941 net773
*942 net774
*943 net775
*944 net776
*945 net777
*946 net778
*947 net779
*948 net78
*949 net780
*950 net781
*951 net782
*952 net783
*953 net784
*954 net785
*955 net786
*956 net787
*957 net788
*958 net789
*959 net79
*960 net790
*961 net791
*962 net792
*963 net793
*964 net794
*965 net795
*966 net796
*967 net797
*968 net798
*969 net799
*970 net8
*971 net80
*972 net800
*973 net801
*974 net802
*975 net803
*976 net804
*977 net805
*978 net806
*979 net807
*980 net808
*981 net809
*982 net81
*983 net810
*984 net811
*985 net812
*986 net813
*987 net814
*988 net815
*989 net816
*990 net817
*991 net818
*992 net819
*993 net82
*994 net820
*995 net821
*996 net822
*997 net823
*998 net824
*999 net825
*1000 net826
*1001 net827
*1002 net828
*1003 net829
*1004 net83
*1005 net830
*1006 net831
*1007 net832
*1008 net833
*1009 net834
*1010 net835
*1011 net836
*1012 net837
*1013 net838
*1014 net839
*1015 net84
*1016 net840
*1017 net841
*1018 net842
*1019 net843
*1020 net844
*1021 net85
*1022 net86
*1023 net87
*1024 net88
*1025 net89
*1026 net9
*1027 net90
*1028 net91
*1029 net92
*1030 net93
*1031 net94
*1032 net95
*1033 net96
*1034 net97
*1035 net98
*1036 net99
*1037 ANTENNA_1
*1038 ANTENNA_2
*1039 ANTENNA_c100_Y
*1040 ANTENNA_c102_X
*1041 ANTENNA_c103_B1_N
*1042 ANTENNA_c104_A3
*1043 ANTENNA_c104_S1
*1044 ANTENNA_c105_B
*1045 ANTENNA_c107_A2
*1046 ANTENNA_c107_B1
*1047 ANTENNA_c111_CLK
*1048 ANTENNA_c114_CLK
*1049 ANTENNA_c114_Q
*1050 ANTENNA_c115_CLK_N
*1051 ANTENNA_c118_CLK
*1052 ANTENNA_c119_CLK
*1053 ANTENNA_c124_CLK_N
*1054 ANTENNA_c125_CLK_N
*1055 ANTENNA_c125_Q_N
*1056 ANTENNA_c126_A
*1057 ANTENNA_c126_B_N
*1058 ANTENNA_c127_A_N
*1059 ANTENNA_c127_B
*1060 ANTENNA_c127_Y
*1061 ANTENNA_c128_A
*1062 ANTENNA_c128_X
*1063 ANTENNA_c129_B
*1064 ANTENNA_c132_A2
*1065 ANTENNA_c132_B1
*1066 ANTENNA_c132_X
*1067 ANTENNA_c133_B
*1068 ANTENNA_c134_A
*1069 ANTENNA_c136_A2
*1070 ANTENNA_c136_Y
*1071 ANTENNA_c137_A
*1072 ANTENNA_c138_B
*1073 ANTENNA_c139_X
*1074 ANTENNA_c143_B_N
*1075 ANTENNA_c144_A2
*1076 ANTENNA_c146_Y
*1077 ANTENNA_c147_A
*1078 ANTENNA_c147_B
*1079 ANTENNA_c148_B
*1080 ANTENNA_c148_Y
*1081 ANTENNA_c149_B_N
*1082 ANTENNA_c150_B
*1083 ANTENNA_c151_A2
*1084 ANTENNA_c151_B1
*1085 ANTENNA_c151_X
*1086 ANTENNA_c152_Y
*1087 ANTENNA_c155_B
*1088 ANTENNA_c157_X
*1089 ANTENNA_c160_B1
*1090 ANTENNA_c163_S0
*1091 ANTENNA_c165_X
*1092 ANTENNA_c166_X
*1093 ANTENNA_c167_X
*1094 ANTENNA_c168_B1
*1095 ANTENNA_c168_Y
*1096 ANTENNA_c169_A
*1097 ANTENNA_c169_B
*1098 ANTENNA_c170_B
*1099 ANTENNA_c170_Y
*1100 ANTENNA_c171_X
*1101 ANTENNA_c172_A2
*1102 ANTENNA_c172_B1_N
*1103 ANTENNA_c172_Y
*1104 ANTENNA_c173_B
*1105 ANTENNA_c174_A
*1106 ANTENNA_c174_B_N
*1107 ANTENNA_c175_B
*1108 ANTENNA_c176_X
*1109 ANTENNA_c177_B
*1110 ANTENNA_c178_B
*1111 ANTENNA_c180_S
*1112 ANTENNA_c181_A2
*1113 ANTENNA_c182_B
*1114 ANTENNA_c182_Y
*1115 ANTENNA_c183_B
*1116 ANTENNA_c187_Y
*1117 ANTENNA_c188_A2
*1118 ANTENNA_c189_B_N
*1119 ANTENNA_c190_X
*1120 ANTENNA_c191_B
*1121 ANTENNA_c192_B
*1122 ANTENNA_c193_X
*1123 ANTENNA_c194_B1
*1124 ANTENNA_c196_A4
*1125 ANTENNA_c196_B1
*1126 ANTENNA_c196_X
*1127 ANTENNA_c197_B
*1128 ANTENNA_c197_X
*1129 ANTENNA_c198_Y
*1130 ANTENNA_c199_A
*1131 ANTENNA_c199_B_N
*1132 ANTENNA_c200_A4
*1133 ANTENNA_c200_B1
*1134 ANTENNA_c200_X
*1135 ANTENNA_c201_B
*1136 ANTENNA_c201_Y
*1137 ANTENNA_c202_A
*1138 ANTENNA_c202_B
*1139 ANTENNA_c204_B_N
*1140 ANTENNA_c204_X
*1141 ANTENNA_c206_A1
*1142 ANTENNA_c206_S
*1143 ANTENNA_c207_S0
*1144 ANTENNA_c208_A1
*1145 ANTENNA_c208_A2
*1146 ANTENNA_c208_S0
*1147 ANTENNA_c210_B
*1148 ANTENNA_c211_Y
*1149 ANTENNA_c212_Y
*1150 ANTENNA_c213_A
*1151 ANTENNA_c213_B
*1152 ANTENNA_c216_B
*1153 ANTENNA_c218_X
*1154 ANTENNA_c220_SCE
*1155 ANTENNA_c221_A2
*1156 ANTENNA_c221_X
*1157 ANTENNA_c222_B
*1158 ANTENNA_c223_A1
*1159 ANTENNA_c223_A3
*1160 ANTENNA_c223_S0
*1161 ANTENNA_c224_A
*1162 ANTENNA_c224_B_N
*1163 ANTENNA_c226_CLK
*1164 ANTENNA_c226_SCE
*1165 ANTENNA_c227_A1
*1166 ANTENNA_c227_A2
*1167 ANTENNA_c227_S0
*1168 ANTENNA_c227_X
*1169 ANTENNA_c229_A0
*1170 ANTENNA_c229_S1
*1171 ANTENNA_c230_A3
*1172 ANTENNA_c230_S0
*1173 ANTENNA_c231_A1
*1174 ANTENNA_c231_A2
*1175 ANTENNA_c231_B1_N
*1176 ANTENNA_c232_A
*1177 ANTENNA_c232_B
*1178 ANTENNA_c232_X
*1179 ANTENNA_c233_CLK
*1180 ANTENNA_c234_A0
*1181 ANTENNA_c235_CLK
*1182 ANTENNA_c235_SCD
*1183 ANTENNA_c236_CLK
*1184 ANTENNA_c236_D
*1185 ANTENNA_c237_B
*1186 ANTENNA_c237_X
*1187 ANTENNA_c239_A_N
*1188 ANTENNA_c239_B
*1189 ANTENNA_c242_B
*1190 ANTENNA_c243_A3
*1191 ANTENNA_c244_A2
*1192 ANTENNA_c245_CLK
*1193 ANTENNA_c249_A1
*1194 ANTENNA_c249_A3
*1195 ANTENNA_c249_S0
*1196 ANTENNA_c250_SCD
*1197 ANTENNA_c252_B
*1198 ANTENNA_c254_A_N
*1199 ANTENNA_c257_Y
*1200 ANTENNA_c258_A
*1201 ANTENNA_c259_B
*1202 ANTENNA_c261_B
*1203 ANTENNA_c261_Y
*1204 ANTENNA_c265_A
*1205 ANTENNA_c266_Y
*1206 ANTENNA_c267_B
*1207 ANTENNA_c270_A2
*1208 ANTENNA_c273_B
*1209 ANTENNA_c273_X
*1210 ANTENNA_c274_B1_N
*1211 ANTENNA_c275_B
*1212 ANTENNA_c276_B_N
*1213 ANTENNA_c277_B
*1214 ANTENNA_c277_X
*1215 ANTENNA_c278_B_N
*1216 ANTENNA_c279_B
*1217 ANTENNA_c280_B
*1218 ANTENNA_c281_A
*1219 ANTENNA_c282_X
*1220 ANTENNA_c289_B
*1221 ANTENNA_c290_B1_N
*1222 ANTENNA_c291_CLK_N
*1223 ANTENNA_c291_RESET_B
*1224 ANTENNA_c291_SCE
*1225 ANTENNA_c291_SET_B
*1226 ANTENNA_c293_CLK
*1227 ANTENNA_c294_A
*1228 ANTENNA_c294_B
*1229 ANTENNA_c297_B
*1230 ANTENNA_c299_A
*1231 ANTENNA_c300_B
*1232 ANTENNA_c301_B
*1233 ANTENNA_c305_B
*1234 ANTENNA_c307_X
*1235 ANTENNA_c308_Y
*1236 ANTENNA_c309_A1
*1237 ANTENNA_c309_A2
*1238 ANTENNA_c309_S0
*1239 ANTENNA_c311_B
*1240 ANTENNA_c312_CLK
*1241 ANTENNA_c313_S0
*1242 ANTENNA_c314_CLK
*1243 ANTENNA_c315_Y
*1244 ANTENNA_c316_A1
*1245 ANTENNA_c316_A2
*1246 ANTENNA_c316_B1
*1247 ANTENNA_c317_A
*1248 ANTENNA_c317_Y
*1249 ANTENNA_c318_A0
*1250 ANTENNA_c318_A1
*1251 ANTENNA_c318_S
*1252 ANTENNA_c320_CLK_N
*1253 ANTENNA_c320_RESET_B
*1254 ANTENNA_c320_SET_B
*1255 ANTENNA_c321_A2
*1256 ANTENNA_c321_Y
*1257 ANTENNA_c322_A1
*1258 ANTENNA_c323_A2
*1259 ANTENNA_c323_Y
*1260 ANTENNA_c324_A0
*1261 ANTENNA_c324_A1
*1262 ANTENNA_c324_A2
*1263 ANTENNA_c324_S0
*1264 ANTENNA_c325_A0
*1265 ANTENNA_c325_A2
*1266 ANTENNA_c325_A3
*1267 ANTENNA_c325_S0
*1268 ANTENNA_c326_B
*1269 ANTENNA_c327_B
*1270 ANTENNA_c328_B
*1271 ANTENNA_c328_Y
*1272 ANTENNA_c329_CLK_N
*1273 ANTENNA_c329_SET_B
*1274 ANTENNA_c330_B1_N
*1275 ANTENNA_c331_B1_N
*1276 ANTENNA_c332_CLK
*1277 ANTENNA_c332_D
*1278 ANTENNA_c332_SET_B
*1279 ANTENNA_c333_CLK
*1280 ANTENNA_c333_Q
*1281 ANTENNA_c334_A2
*1282 ANTENNA_c334_B1_N
*1283 ANTENNA_c334_X
*1284 ANTENNA_c335_A1
*1285 ANTENNA_c335_A2
*1286 ANTENNA_c335_A3
*1287 ANTENNA_c335_S0
*1288 ANTENNA_c336_RESET_B
*1289 ANTENNA_c337_B
*1290 ANTENNA_c339_B
*1291 ANTENNA_c340_B_N
*1292 ANTENNA_c341_A
*1293 ANTENNA_c341_B
*1294 ANTENNA_c342_SCD
*1295 ANTENNA_c343_B
*1296 ANTENNA_c344_A
*1297 ANTENNA_c344_B_N
*1298 ANTENNA_c347_B
*1299 ANTENNA_c348_B
*1300 ANTENNA_c349_A2
*1301 ANTENNA_c349_A3
*1302 ANTENNA_c349_B1
*1303 ANTENNA_c350_CLK_N
*1304 ANTENNA_c350_SCE
*1305 ANTENNA_c350_SET_B
*1306 ANTENNA_c353_A3
*1307 ANTENNA_c353_B1
*1308 ANTENNA_c353_X
*1309 ANTENNA_c354_SCD
*1310 ANTENNA_c355_SCE
*1311 ANTENNA_c356_A1
*1312 ANTENNA_c356_S1
*1313 ANTENNA_c357_A2
*1314 ANTENNA_c357_B1_N
*1315 ANTENNA_c358_A1
*1316 ANTENNA_c359_CLK
*1317 ANTENNA_c359_D
*1318 ANTENNA_c359_SCD
*1319 ANTENNA_c360_GATE
*1320 ANTENNA_c360_RESET_B
*1321 ANTENNA_c361_GATE
*1322 ANTENNA_c362_GATE_N
*1323 ANTENNA_c365_A2
*1324 ANTENNA_c366_SCE
*1325 ANTENNA_c367_A1
*1326 ANTENNA_c367_B1_N
*1327 ANTENNA_c368_A1
*1328 ANTENNA_c368_B1_N
*1329 ANTENNA_c369_CLK_N
*1330 ANTENNA_c369_SET_B
*1331 ANTENNA_c370_A1
*1332 ANTENNA_c371_GATE_N
*1333 ANTENNA_c372_X
*1334 ANTENNA_c373_A1
*1335 ANTENNA_c373_B1_N
*1336 ANTENNA_c373_Y
*1337 ANTENNA_c374_A2
*1338 ANTENNA_c374_B1
*1339 ANTENNA_c375_CLK_N
*1340 ANTENNA_c375_SCD
*1341 ANTENNA_c376_CLK_N
*1342 ANTENNA_c377_A2
*1343 ANTENNA_c381_B
*1344 ANTENNA_c381_Y
*1345 ANTENNA_c382_A
*1346 ANTENNA_c382_B
*1347 ANTENNA_c383_B
*1348 ANTENNA_c384_B
*1349 ANTENNA_c385_B
*1350 ANTENNA_c394_Y
*1351 ANTENNA_c395_CLK
*1352 ANTENNA_c395_SCE
*1353 ANTENNA_c396_GATE_N
*1354 ANTENNA_c397_GATE
*1355 ANTENNA_c397_Q
*1356 ANTENNA_c398_X
*1357 ANTENNA_c399_B
*1358 ANTENNA_c399_X
*1359 ANTENNA_c400_B
*1360 ANTENNA_c404_D
*1361 ANTENNA_c404_GATE
*1362 ANTENNA_c405_GATE
*1363 ANTENNA_c406_CLK
*1364 ANTENNA_c409_A1
*1365 ANTENNA_c410_A
*1366 ANTENNA_c412_B
*1367 ANTENNA_c413_S
*1368 ANTENNA_c415_CLK
*1369 ANTENNA_c417_Y
*1370 ANTENNA_c418_CLK_N
*1371 ANTENNA_c421_A1
*1372 ANTENNA_c421_A2
*1373 ANTENNA_c422_B1_N
*1374 ANTENNA_c423_A
*1375 ANTENNA_c423_B
*1376 ANTENNA_c423_X
*1377 ANTENNA_c424_CLK
*1378 ANTENNA_c424_DE
*1379 ANTENNA_c425_CLK
*1380 ANTENNA_c426_B
*1381 ANTENNA_c430_A2
*1382 ANTENNA_c433_CLK
*1383 ANTENNA_c434_B1_N
*1384 ANTENNA_c434_X
*1385 ANTENNA_c436_CLK_N
*1386 ANTENNA_c437_A2
*1387 ANTENNA_c439_CLK
*1388 ANTENNA_c440_CLK
*1389 ANTENNA_c441_SCE
*1390 ANTENNA_c442_CLK
*1391 ANTENNA_c442_GATE
*1392 ANTENNA_c443_A
*1393 ANTENNA_c444_B_N
*1394 ANTENNA_c445_B
*1395 ANTENNA_c447_B
*1396 ANTENNA_c448_RESET_B
*1397 ANTENNA_c448_SCD
*1398 ANTENNA_c448_SCE
*1399 ANTENNA_c449_A2
*1400 ANTENNA_c449_B1
*1401 ANTENNA_c451_CLK
*1402 ANTENNA_c451_Q
*1403 ANTENNA_c452_CLK
*1404 ANTENNA_c452_RESET_B
*1405 ANTENNA_c453_A
*1406 ANTENNA_c454_A1
*1407 ANTENNA_c454_B1_N
*1408 ANTENNA_c456_B
*1409 ANTENNA_c456_Y
*1410 ANTENNA_c457_RESET_B
*1411 ANTENNA_c460_A1
*1412 ANTENNA_c460_A3
*1413 ANTENNA_c460_S0
*1414 ANTENNA_c460_S1
*1415 ANTENNA_c462_A_N
*1416 ANTENNA_c462_B
*1417 ANTENNA_c462_X
*1418 ANTENNA_c463_A
*1419 ANTENNA_c463_B_N
*1420 ANTENNA_c464_A1
*1421 ANTENNA_c464_A2
*1422 ANTENNA_c466_A
*1423 ANTENNA_c466_B
*1424 ANTENNA_c468_CLK_N
*1425 ANTENNA_c468_RESET_B
*1426 ANTENNA_c469_A1
*1427 ANTENNA_c469_A2
*1428 ANTENNA_c469_B1_N
*1429 ANTENNA_c470_A2
*1430 ANTENNA_c470_B1
*1431 ANTENNA_c471_CLK
*1432 ANTENNA_c471_SCE
*1433 ANTENNA_c472_A3
*1434 ANTENNA_c472_S0
*1435 ANTENNA_c472_S1
*1436 ANTENNA_c473_B
*1437 ANTENNA_c474_SCE
*1438 ANTENNA_c477_A1
*1439 ANTENNA_c478_A2
*1440 ANTENNA_c478_A4
*1441 ANTENNA_c478_B1
*1442 ANTENNA_c481_A3
*1443 ANTENNA_c481_S0
*1444 ANTENNA_c482_A3
*1445 ANTENNA_c482_Y
*1446 ANTENNA_c494_A3
*1447 ANTENNA_c494_B1
*1448 ANTENNA_c495_D
*1449 ANTENNA_c495_SCD
*1450 ANTENNA_c495_SCE
*1451 ANTENNA_c495_SET_B
*1452 ANTENNA_c496_A3
*1453 ANTENNA_c497_SCD
*1454 ANTENNA_c497_SCE
*1455 ANTENNA_c497_SET_B
*1456 ANTENNA_c498_A2
*1457 ANTENNA_c498_B1
*1458 ANTENNA_c499_A0
*1459 ANTENNA_c499_A1
*1460 ANTENNA_c499_A2
*1461 ANTENNA_c499_A3
*1462 ANTENNA_c499_S0
*1463 ANTENNA_c499_S1
*1464 ANTENNA_c500_D
*1465 ANTENNA_c500_SCE
*1466 ANTENNA_c502_SCE
*1467 ANTENNA_c503_D
*1468 ANTENNA_c503_SCD
*1469 ANTENNA_c503_SET_B
*1470 ANTENNA_c505_B_N
*1471 ANTENNA_c507_A_N
*1472 ANTENNA_c508_B_N
*1473 ANTENNA_c508_X
*1474 ANTENNA_c509_X
*1475 ANTENNA_c510_Y
*1476 ANTENNA_c511_B
*1477 ANTENNA_c513_B
*1478 ANTENNA_c515_B
*1479 ANTENNA_c516_B_N
*1480 ANTENNA_c516_Y
*1481 ANTENNA_c517_B
*1482 ANTENNA_c518_CLK
*1483 ANTENNA_c520_B
*1484 ANTENNA_c521_Y
*1485 ANTENNA_c522_CLK_N
*1486 ANTENNA_c522_Q
*1487 ANTENNA_c522_RESET_B
*1488 ANTENNA_c523_B_N
*1489 ANTENNA_c523_X
*1490 ANTENNA_c524_A
*1491 ANTENNA_c524_X
*1492 ANTENNA_c525_B
*1493 ANTENNA_c526_A1
*1494 ANTENNA_c526_A2
*1495 ANTENNA_c526_B1
*1496 ANTENNA_c528_CLK
*1497 ANTENNA_c528_D
*1498 ANTENNA_c528_RESET_B
*1499 ANTENNA_c52_B1_N
*1500 ANTENNA_c530_CLK
*1501 ANTENNA_c530_RESET_B
*1502 ANTENNA_c531_A_N
*1503 ANTENNA_c532_CLK
*1504 ANTENNA_c533_CLK
*1505 ANTENNA_c533_SCE
*1506 ANTENNA_c535_B
*1507 ANTENNA_c535_X
*1508 ANTENNA_c536_CLK
*1509 ANTENNA_c537_A3
*1510 ANTENNA_c537_B1
*1511 ANTENNA_c539_A1
*1512 ANTENNA_c539_A2
*1513 ANTENNA_c539_B1
*1514 ANTENNA_c53_B1
*1515 ANTENNA_c53_Y
*1516 ANTENNA_c540_B1
*1517 ANTENNA_c541_A2
*1518 ANTENNA_c541_B1
*1519 ANTENNA_c541_X
*1520 ANTENNA_c543_B
*1521 ANTENNA_c543_X
*1522 ANTENNA_c544_A0
*1523 ANTENNA_c544_S0
*1524 ANTENNA_c544_S1
*1525 ANTENNA_c545_CLK
*1526 ANTENNA_c545_SCD
*1527 ANTENNA_c545_SET_B
*1528 ANTENNA_c546_A
*1529 ANTENNA_c547_B_N
*1530 ANTENNA_c54_A3
*1531 ANTENNA_c54_A4
*1532 ANTENNA_c54_B1
*1533 ANTENNA_c550_CLK
*1534 ANTENNA_c550_Q
*1535 ANTENNA_c550_Q_N
*1536 ANTENNA_c550_SET_B
*1537 ANTENNA_c552_A
*1538 ANTENNA_c552_B
*1539 ANTENNA_c553_A2
*1540 ANTENNA_c554_B
*1541 ANTENNA_c555_A2
*1542 ANTENNA_c555_B1
*1543 ANTENNA_c556_B
*1544 ANTENNA_c557_A2
*1545 ANTENNA_c557_A3
*1546 ANTENNA_c557_S1
*1547 ANTENNA_c558_CLK
*1548 ANTENNA_c558_SET_B
*1549 ANTENNA_c559_CLK_N
*1550 ANTENNA_c559_RESET_B
*1551 ANTENNA_c560_B_N
*1552 ANTENNA_c561_CLK
*1553 ANTENNA_c561_SET_B
*1554 ANTENNA_c562_B1
*1555 ANTENNA_c563_CLK
*1556 ANTENNA_c564_Y
*1557 ANTENNA_c565_A3
*1558 ANTENNA_c566_A2
*1559 ANTENNA_c566_A3
*1560 ANTENNA_c567_A1
*1561 ANTENNA_c568_CLK
*1562 ANTENNA_c568_SET_B
*1563 ANTENNA_c569_CLK_N
*1564 ANTENNA_c569_D
*1565 ANTENNA_c569_RESET_B
*1566 ANTENNA_c56_A4
*1567 ANTENNA_c56_B1
*1568 ANTENNA_c570_CLK
*1569 ANTENNA_c570_Q_N
*1570 ANTENNA_c570_RESET_B
*1571 ANTENNA_c573_CLK
*1572 ANTENNA_c574_A2
*1573 ANTENNA_c575_A1
*1574 ANTENNA_c575_S0
*1575 ANTENNA_c575_S1
*1576 ANTENNA_c576_Q
*1577 ANTENNA_c576_Q_N
*1578 ANTENNA_c577_GATE_N
*1579 ANTENNA_c578_A2
*1580 ANTENNA_c578_B1
*1581 ANTENNA_c580_B
*1582 ANTENNA_c581_A1
*1583 ANTENNA_c581_B1
*1584 ANTENNA_c582_A
*1585 ANTENNA_c585_SCE
*1586 ANTENNA_c587_S1
*1587 ANTENNA_c588_A2
*1588 ANTENNA_c588_B1
*1589 ANTENNA_c58_B1
*1590 ANTENNA_c590_B1_N
*1591 ANTENNA_c592_A1
*1592 ANTENNA_c592_B1
*1593 ANTENNA_c593_A1
*1594 ANTENNA_c593_A2
*1595 ANTENNA_c593_B1
*1596 ANTENNA_c594_A2
*1597 ANTENNA_c594_B1_N
*1598 ANTENNA_c596_X
*1599 ANTENNA_c597_A3
*1600 ANTENNA_c598_SCD
*1601 ANTENNA_c598_SET_B
*1602 ANTENNA_c599_A1
*1603 ANTENNA_c599_A2
*1604 ANTENNA_c599_A3
*1605 ANTENNA_c599_S0
*1606 ANTENNA_c600_A2
*1607 ANTENNA_c601_A1
*1608 ANTENNA_c601_A2
*1609 ANTENNA_c602_D
*1610 ANTENNA_c602_SCE
*1611 ANTENNA_c603_SCD
*1612 ANTENNA_c604_SCE
*1613 ANTENNA_c604_SET_B
*1614 ANTENNA_c605_D
*1615 ANTENNA_c605_SCE
*1616 ANTENNA_c606_RESET_B
*1617 ANTENNA_c606_SET_B
*1618 ANTENNA_c607_A2
*1619 ANTENNA_c607_B1_N
*1620 ANTENNA_c60_A2
*1621 ANTENNA_c630_B
*1622 ANTENNA_c631_B
*1623 ANTENNA_c634_D
*1624 ANTENNA_c634_GATE
*1625 ANTENNA_c634_RESET_B
*1626 ANTENNA_c635_A
*1627 ANTENNA_c635_Y
*1628 ANTENNA_c636_A_N
*1629 ANTENNA_c636_B
*1630 ANTENNA_c637_A
*1631 ANTENNA_c637_Y
*1632 ANTENNA_c638_D
*1633 ANTENNA_c638_GATE
*1634 ANTENNA_c639_B
*1635 ANTENNA_c63_A
*1636 ANTENNA_c641_B
*1637 ANTENNA_c641_Y
*1638 ANTENNA_c642_GATE_N
*1639 ANTENNA_c643_GATE_N
*1640 ANTENNA_c643_RESET_B
*1641 ANTENNA_c644_B_N
*1642 ANTENNA_c644_Y
*1643 ANTENNA_c645_B
*1644 ANTENNA_c646_GATE_N
*1645 ANTENNA_c648_GATE
*1646 ANTENNA_c64_Y
*1647 ANTENNA_c650_CLK_N
*1648 ANTENNA_c651_B
*1649 ANTENNA_c652_A
*1650 ANTENNA_c654_B1
*1651 ANTENNA_c655_B
*1652 ANTENNA_c656_A3
*1653 ANTENNA_c659_DE
*1654 ANTENNA_c65_A
*1655 ANTENNA_c65_B
*1656 ANTENNA_c662_A1
*1657 ANTENNA_c662_A2
*1658 ANTENNA_c664_X
*1659 ANTENNA_c667_A1
*1660 ANTENNA_c667_A3
*1661 ANTENNA_c667_S0
*1662 ANTENNA_c667_S1
*1663 ANTENNA_c668_A1
*1664 ANTENNA_c669_D
*1665 ANTENNA_c669_SCE
*1666 ANTENNA_c670_A0
*1667 ANTENNA_c670_A2
*1668 ANTENNA_c670_S0
*1669 ANTENNA_c672_A
*1670 ANTENNA_c672_B
*1671 ANTENNA_c673_X
*1672 ANTENNA_c674_B
*1673 ANTENNA_c675_B
*1674 ANTENNA_c676_A3
*1675 ANTENNA_c677_D
*1676 ANTENNA_c677_SET_B
*1677 ANTENNA_c679_A1
*1678 ANTENNA_c679_B1
*1679 ANTENNA_c681_CLK
*1680 ANTENNA_c681_SCD
*1681 ANTENNA_c684_Y
*1682 ANTENNA_c685_SCD
*1683 ANTENNA_c686_CLK
*1684 ANTENNA_c687_A1
*1685 ANTENNA_c687_A3
*1686 ANTENNA_c687_A4
*1687 ANTENNA_c688_A3
*1688 ANTENNA_c688_B1
*1689 ANTENNA_c689_Y
*1690 ANTENNA_c68_B
*1691 ANTENNA_c690_A3
*1692 ANTENNA_c691_A3
*1693 ANTENNA_c692_A1
*1694 ANTENNA_c695_CLK
*1695 ANTENNA_c695_Q
*1696 ANTENNA_c695_SCD
*1697 ANTENNA_c695_SCE
*1698 ANTENNA_c696_A2
*1699 ANTENNA_c696_B1_N
*1700 ANTENNA_c697_A1
*1701 ANTENNA_c697_A2
*1702 ANTENNA_c697_B1
*1703 ANTENNA_c698_CLK
*1704 ANTENNA_c699_A0
*1705 ANTENNA_c699_A2
*1706 ANTENNA_c699_A3
*1707 ANTENNA_c699_S0
*1708 ANTENNA_c69_B
*1709 ANTENNA_c700_A2
*1710 ANTENNA_c700_B1
*1711 ANTENNA_c701_D
*1712 ANTENNA_c702_A
*1713 ANTENNA_c704_CLK
*1714 ANTENNA_c704_D
*1715 ANTENNA_c706_A2
*1716 ANTENNA_c707_A1
*1717 ANTENNA_c707_S0
*1718 ANTENNA_c707_S1
*1719 ANTENNA_c708_A0
*1720 ANTENNA_c709_A1
*1721 ANTENNA_c709_B1
*1722 ANTENNA_c70_A
*1723 ANTENNA_c710_S
*1724 ANTENNA_c711_A2
*1725 ANTENNA_c713_SCD
*1726 ANTENNA_c714_A2
*1727 ANTENNA_c714_B1_N
*1728 ANTENNA_c716_D
*1729 ANTENNA_c716_SCE
*1730 ANTENNA_c717_A1
*1731 ANTENNA_c717_A4
*1732 ANTENNA_c718_A1
*1733 ANTENNA_c718_B1
*1734 ANTENNA_c719_S
*1735 ANTENNA_c71_B
*1736 ANTENNA_c720_A1
*1737 ANTENNA_c720_B1
*1738 ANTENNA_c722_D
*1739 ANTENNA_c722_DE
*1740 ANTENNA_c722_SCD
*1741 ANTENNA_c722_SCE
*1742 ANTENNA_c723_A3
*1743 ANTENNA_c724_SCE
*1744 ANTENNA_c725_A1
*1745 ANTENNA_c726_B1
*1746 ANTENNA_c727_A3
*1747 ANTENNA_c727_A4
*1748 ANTENNA_c727_B1
*1749 ANTENNA_c728_S0
*1750 ANTENNA_c729_SCE
*1751 ANTENNA_c72_B1_N
*1752 ANTENNA_c730_B1_N
*1753 ANTENNA_c731_A1
*1754 ANTENNA_c731_B1
*1755 ANTENNA_c732_A3
*1756 ANTENNA_c733_A3
*1757 ANTENNA_c733_Y
*1758 ANTENNA_c74_Y
*1759 ANTENNA_c75_B_N
*1760 ANTENNA_c77_A1
*1761 ANTENNA_c77_S
*1762 ANTENNA_c77_X
*1763 ANTENNA_c81_A1
*1764 ANTENNA_c81_Y
*1765 ANTENNA_c83_A3
*1766 ANTENNA_c83_B1
*1767 ANTENNA_c85_A
*1768 ANTENNA_c92_X
*1769 ANTENNA_c96_B
*1770 ANTENNA_clkbuf_0_clk_A
*1771 ANTENNA_clkbuf_0_clk_X
*1772 ANTENNA_clkbuf_1_0__f_net377_X
*1773 ANTENNA_clkbuf_1_0__f_net388_X
*1774 ANTENNA_clkbuf_4_0_0_clk_A
*1775 ANTENNA_clkbuf_4_10_0_clk_A
*1776 ANTENNA_clkbuf_4_10_0_clk_X