*SPEF "ieee 1481-1999"
*DESIGN "netlist_0"
*DATE "21:31:21 Saturday July 20, 2024"
*VENDOR "The OpenROAD Project"
*PROGRAM "OpenROAD"
*VERSION "d423155d69de7f683a23f6916ead418a615ad4ad"
*DESIGN_FLOW "NAME_SCOPE LOCAL" "PIN_CAP NONE"
*DIVIDER /
*DELIMITER :
*BUS_DELIMITER []
*T_UNIT 1 NS
*C_UNIT 1 PF
*R_UNIT 1 OHM
*L_UNIT 1 HENRY

*NAME_MAP
*3 clk
*4 in0
*5 in1
*6 in10
*7 in11
*8 in12
*9 in13
*10 in14
*11 in15
*12 in16
*13 in17
*14 in18
*15 in19
*16 in2
*17 in20
*18 in21
*19 in22
*20 in23
*21 in24
*22 in25
*23 in26
*24 in27
*25 in28
*26 in29
*27 in3
*28 in30
*29 in31
*30 in32
*31 in33
*32 in34
*33 in35
*34 in36
*35 in37
*36 in38
*37 in39
*38 in4
*39 in40
*40 in41
*41 in42
*42 in43
*43 in44
*44 in45
*45 in46
*46 in47
*47 in48
*48 in49
*49 in5
*50 in50
*51 in51
*52 in52
*53 in53
*54 in54
*55 in55
*56 in56
*57 in57
*58 in58
*59 in59
*60 in6
*61 in60
*62 in61
*63 in7
*64 in8
*65 in9
*66 out0
*67 out1
*68 out10
*69 out11
*70 out12
*71 out13
*72 out14
*73 out15
*74 out16
*75 out17
*76 out18
*77 out19
*78 out2
*79 out20
*80 out21
*81 out22
*82 out23
*83 out24
*84 out25
*85 out26
*86 out27
*87 out28
*88 out29
*89 out3
*90 out30
*91 out31
*92 out32
*93 out33
*94 out34
*95 out35
*96 out36
*97 out37
*98 out38
*99 out39
*100 out4
*101 out40
*102 out41
*103 out42
*104 out43
*105 out44
*106 out45
*107 out46
*108 out47
*109 out48
*110 out49
*111 out5
*112 out50
*113 out51
*114 out52
*115 out53
*116 out54
*117 out55
*118 out56
*119 out57
*120 out58
*121 out59
*122 out6
*123 out60
*124 out61
*125 out7
*126 out8
*127 out9
*128 rst
*129 clknet_0_clk
*130 clknet_0_net1002
*131 clknet_0_net1008
*132 clknet_0_net1010
*133 clknet_0_net110
*134 clknet_0_net111
*135 clknet_0_net12
*136 clknet_0_net130
*137 clknet_0_net140
*138 clknet_0_net157
*139 clknet_0_net16
*140 clknet_0_net160
*141 clknet_0_net162
*142 clknet_0_net167
*143 clknet_0_net168
*144 clknet_0_net169
*145 clknet_0_net172
*146 clknet_0_net175
*147 clknet_0_net176
*148 clknet_0_net19
*149 clknet_0_net190
*150 clknet_0_net22
*151 clknet_0_net24
*152 clknet_0_net25
*153 clknet_0_net29
*154 clknet_0_net30
*155 clknet_0_net303
*156 clknet_0_net304
*157 clknet_0_net34
*158 clknet_0_net342
*159 clknet_0_net35
*160 clknet_0_net351
*161 clknet_0_net356
*162 clknet_0_net36
*163 clknet_0_net371
*164 clknet_0_net372
*165 clknet_0_net374
*166 clknet_0_net38
*167 clknet_0_net39
*168 clknet_0_net417
*169 clknet_0_net418
*170 clknet_0_net425
*171 clknet_0_net427
*172 clknet_0_net429
*173 clknet_0_net430
*174 clknet_0_net432
*175 clknet_0_net438
*176 clknet_0_net445
*177 clknet_0_net464
*178 clknet_0_net485
*179 clknet_0_net496
*180 clknet_0_net503
*181 clknet_0_net504
*182 clknet_0_net516
*183 clknet_0_net536
*184 clknet_0_net54
*185 clknet_0_net541
*186 clknet_0_net546
*187 clknet_0_net612
*188 clknet_0_net616
*189 clknet_0_net617
*190 clknet_0_net769
*191 clknet_0_net770
*192 clknet_0_net832
*193 clknet_0_net848
*194 clknet_0_net849
*195 clknet_0_net850
*196 clknet_0_net868
*197 clknet_0_net869
*198 clknet_0_net887
*199 clknet_0_net888
*200 clknet_0_net889
*201 clknet_0_net961
*202 clknet_0_net967
*203 clknet_0_net969
*204 clknet_0_net978
*205 clknet_0_net986
*206 clknet_0_net992
*207 clknet_0_net993
*208 clknet_0_net998
*209 clknet_1_0__leaf_net1002
*210 clknet_1_0__leaf_net1008
*211 clknet_1_0__leaf_net1010
*212 clknet_1_0__leaf_net110
*213 clknet_1_0__leaf_net111
*214 clknet_1_0__leaf_net12
*215 clknet_1_0__leaf_net130
*216 clknet_1_0__leaf_net140
*217 clknet_1_0__leaf_net157
*218 clknet_1_0__leaf_net16
*219 clknet_1_0__leaf_net160
*220 clknet_1_0__leaf_net162
*221 clknet_1_0__leaf_net167
*222 clknet_1_0__leaf_net168
*223 clknet_1_0__leaf_net169
*224 clknet_1_0__leaf_net172
*225 clknet_1_0__leaf_net175
*226 clknet_1_0__leaf_net176
*227 clknet_1_0__leaf_net19
*228 clknet_1_0__leaf_net190
*229 clknet_1_0__leaf_net22
*230 clknet_1_0__leaf_net24
*231 clknet_1_0__leaf_net25
*232 clknet_1_0__leaf_net29
*233 clknet_1_0__leaf_net30
*234 clknet_1_0__leaf_net303
*235 clknet_1_0__leaf_net304
*236 clknet_1_0__leaf_net34
*237 clknet_1_0__leaf_net342
*238 clknet_1_0__leaf_net35
*239 clknet_1_0__leaf_net351
*240 clknet_1_0__leaf_net356
*241 clknet_1_0__leaf_net36
*242 clknet_1_0__leaf_net371
*243 clknet_1_0__leaf_net372
*244 clknet_1_0__leaf_net374
*245 clknet_1_0__leaf_net38
*246 clknet_1_0__leaf_net39
*247 clknet_1_0__leaf_net417
*248 clknet_1_0__leaf_net418
*249 clknet_1_0__leaf_net425
*250 clknet_1_0__leaf_net427
*251 clknet_1_0__leaf_net429
*252 clknet_1_0__leaf_net430
*253 clknet_1_0__leaf_net432
*254 clknet_1_0__leaf_net438
*255 clknet_1_0__leaf_net445
*256 clknet_1_0__leaf_net464
*257 clknet_1_0__leaf_net485
*258 clknet_1_0__leaf_net496
*259 clknet_1_0__leaf_net503
*260 clknet_1_0__leaf_net504
*261 clknet_1_0__leaf_net516
*262 clknet_1_0__leaf_net536
*263 clknet_1_0__leaf_net54
*264 clknet_1_0__leaf_net541
*265 clknet_1_0__leaf_net546
*266 clknet_1_0__leaf_net612
*267 clknet_1_0__leaf_net616
*268 clknet_1_0__leaf_net617
*269 clknet_1_0__leaf_net769
*270 clknet_1_0__leaf_net770
*271 clknet_1_0__leaf_net832
*272 clknet_1_0__leaf_net848
*273 clknet_1_0__leaf_net849
*274 clknet_1_0__leaf_net850
*275 clknet_1_0__leaf_net868
*276 clknet_1_0__leaf_net869
*277 clknet_1_0__leaf_net887
*278 clknet_1_0__leaf_net888
*279 clknet_1_0__leaf_net889
*280 clknet_1_0__leaf_net961
*281 clknet_1_0__leaf_net967
*282 clknet_1_0__leaf_net969
*283 clknet_1_0__leaf_net978
*284 clknet_1_0__leaf_net986
*285 clknet_1_0__leaf_net992
*286 clknet_1_0__leaf_net993
*287 clknet_1_0__leaf_net998
*288 clknet_1_1__leaf_net1002
*289 clknet_1_1__leaf_net1008
*290 clknet_1_1__leaf_net1010
*291 clknet_1_1__leaf_net110
*292 clknet_1_1__leaf_net111
*293 clknet_1_1__leaf_net12
*294 clknet_1_1__leaf_net130
*295 clknet_1_1__leaf_net140
*296 clknet_1_1__leaf_net157
*297 clknet_1_1__leaf_net16
*298 clknet_1_1__leaf_net160
*299 clknet_1_1__leaf_net162
*300 clknet_1_1__leaf_net167
*301 clknet_1_1__leaf_net168
*302 clknet_1_1__leaf_net169
*303 clknet_1_1__leaf_net172
*304 clknet_1_1__leaf_net175
*305 clknet_1_1__leaf_net176
*306 clknet_1_1__leaf_net19
*307 clknet_1_1__leaf_net190
*308 clknet_1_1__leaf_net22
*309 clknet_1_1__leaf_net24
*310 clknet_1_1__leaf_net25
*311 clknet_1_1__leaf_net29
*312 clknet_1_1__leaf_net30
*313 clknet_1_1__leaf_net303
*314 clknet_1_1__leaf_net304
*315 clknet_1_1__leaf_net34
*316 clknet_1_1__leaf_net342
*317 clknet_1_1__leaf_net35
*318 clknet_1_1__leaf_net351
*319 clknet_1_1__leaf_net356
*320 clknet_1_1__leaf_net36
*321 clknet_1_1__leaf_net371
*322 clknet_1_1__leaf_net372
*323 clknet_1_1__leaf_net374
*324 clknet_1_1__leaf_net38
*325 clknet_1_1__leaf_net39
*326 clknet_1_1__leaf_net417
*327 clknet_1_1__leaf_net418
*328 clknet_1_1__leaf_net425
*329 clknet_1_1__leaf_net427
*330 clknet_1_1__leaf_net429
*331 clknet_1_1__leaf_net430
*332 clknet_1_1__leaf_net432
*333 clknet_1_1__leaf_net438
*334 clknet_1_1__leaf_net445
*335 clknet_1_1__leaf_net464
*336 clknet_1_1__leaf_net485
*337 clknet_1_1__leaf_net496
*338 clknet_1_1__leaf_net503
*339 clknet_1_1__leaf_net504
*340 clknet_1_1__leaf_net516
*341 clknet_1_1__leaf_net536
*342 clknet_1_1__leaf_net54
*343 clknet_1_1__leaf_net541
*344 clknet_1_1__leaf_net546
*345 clknet_1_1__leaf_net612
*346 clknet_1_1__leaf_net616
*347 clknet_1_1__leaf_net617
*348 clknet_1_1__leaf_net769
*349 clknet_1_1__leaf_net770
*350 clknet_1_1__leaf_net832
*351 clknet_1_1__leaf_net848
*352 clknet_1_1__leaf_net849
*353 clknet_1_1__leaf_net850
*354 clknet_1_1__leaf_net868
*355 clknet_1_1__leaf_net869
*356 clknet_1_1__leaf_net887
*357 clknet_1_1__leaf_net888
*358 clknet_1_1__leaf_net889
*359 clknet_1_1__leaf_net961
*360 clknet_1_1__leaf_net967
*361 clknet_1_1__leaf_net969
*362 clknet_1_1__leaf_net978
*363 clknet_1_1__leaf_net986
*364 clknet_1_1__leaf_net992
*365 clknet_1_1__leaf_net993
*366 clknet_1_1__leaf_net998
*367 clknet_4_0_0_clk
*368 clknet_4_10_0_clk
*369 clknet_4_11_0_clk
*370 clknet_4_12_0_clk
*371 clknet_4_13_0_clk
*372 clknet_4_14_0_clk
*373 clknet_4_15_0_clk
*374 clknet_4_1_0_clk
*375 clknet_4_2_0_clk
*376 clknet_4_3_0_clk
*377 clknet_4_4_0_clk
*378 clknet_4_5_0_clk
*379 clknet_4_6_0_clk
*380 clknet_4_7_0_clk
*381 clknet_4_8_0_clk
*382 clknet_4_9_0_clk
*383 net0
*384 net1
*385 net10
*386 net100
*387 net1000
*388 net1001
*389 net1002
*390 net1003
*391 net1004
*392 net1005
*393 net1006
*394 net1007
*395 net1008
*396 net1009
*397 net101
*398 net1010
*399 net1011
*400 net1012
*401 net1013
*402 net1014
*403 net1015
*404 net1016
*405 net1017
*406 net1018
*407 net1019
*408 net102
*409 net1020
*410 net1021
*411 net1022
*412 net1023
*413 net1024
*414 net1025
*415 net1026
*416 net1027
*417 net1028
*418 net1029
*419 net103
*420 net1030
*421 net1031
*422 net1032
*423 net1033
*424 net1034
*425 net1035
*426 net1036
*427 net1037
*428 net1038
*429 net1039
*430 net104
*431 net1040
*432 net1041
*433 net1042
*434 net1043
*435 net1044
*436 net1045
*437 net1046
*438 net1047
*439 net1048
*440 net1049
*441 net105
*442 net1050
*443 net1051
*444 net1052
*445 net1053
*446 net1054
*447 net1055
*448 net1056
*449 net1057
*450 net1058
*451 net1059
*452 net106
*453 net1060
*454 net1061
*455 net1062
*456 net1063
*457 net1064
*458 net1065
*459 net1066
*460 net1067
*461 net1068
*462 net1069
*463 net107
*464 net1070
*465 net1071
*466 net1072
*467 net1073
*468 net1074
*469 net1075
*470 net1076
*471 net1077
*472 net1078
*473 net1079
*474 net108
*475 net1080
*476 net1081
*477 net1082
*478 net1083
*479 net1084
*480 net1085
*481 net1086
*482 net1087
*483 net1088
*484 net1089
*485 net109
*486 net1090
*487 net1091
*488 net1092
*489 net1093
*490 net1094
*491 net1095
*492 net1096
*493 net1097
*494 net1098
*495 net11
*496 net110
*497 net111
*498 net112
*499 net113
*500 net114
*501 net115
*502 net116
*503 net117
*504 net118
*505 net119
*506 net12
*507 net120
*508 net121
*509 net122
*510 net123
*511 net124
*512 net125
*513 net126
*514 net127
*515 net128
*516 net129
*517 net13
*518 net130
*519 net131
*520 net132
*521 net133
*522 net134
*523 net135
*524 net136
*525 net137
*526 net138
*527 net139
*528 net14
*529 net140
*530 net141
*531 net142
*532 net143
*533 net144
*534 net145
*535 net146
*536 net147
*537 net148
*538 net149
*539 net15
*540 net150
*541 net151
*542 net152
*543 net153
*544 net154
*545 net155
*546 net156
*547 net157
*548 net158
*549 net159
*550 net16
*551 net160
*552 net161
*553 net162
*554 net163
*555 net164
*556 net165
*557 net166
*558 net167
*559 net168
*560 net169
*561 net17
*562 net170
*563 net171
*564 net172
*565 net173
*566 net174
*567 net175
*568 net176
*569 net177
*570 net178
*571 net179
*572 net18
*573 net180
*574 net181
*575 net182
*576 net183
*577 net184
*578 net185
*579 net186
*580 net187
*581 net188
*582 net189
*583 net19
*584 net190
*585 net191
*586 net192
*587 net193
*588 net194
*589 net195
*590 net196
*591 net197
*592 net198
*593 net199
*594 net2
*595 net20
*596 net200
*597 net201
*598 net202
*599 net203
*600 net204
*601 net205
*602 net206
*603 net207
*604 net208
*605 net209
*606 net21
*607 net210
*608 net211
*609 net212
*610 net213
*611 net214
*612 net215
*613 net216
*614 net217
*615 net218
*616 net219
*617 net22
*618 net220
*619 net221
*620 net222
*621 net223
*622 net224
*623 net225
*624 net226
*625 net227
*626 net228
*627 net229
*628 net23
*629 net230
*630 net231
*631 net232
*632 net233
*633 net234
*634 net235
*635 net236
*636 net237
*637 net238
*638 net239
*639 net24
*640 net240
*641 net241
*642 net242
*643 net243
*644 net244
*645 net245
*646 net246
*647 net247
*648 net248
*649 net249
*650 net25
*651 net250
*652 net251
*653 net252
*654 net253
*655 net254
*656 net255
*657 net256
*658 net257
*659 net258
*660 net259
*661 net26
*662 net260
*663 net261
*664 net262
*665 net263
*666 net264
*667 net265
*668 net266
*669 net267
*670 net268
*671 net269
*672 net27
*673 net270
*674 net271
*675 net272
*676 net273
*677 net274
*678 net275
*679 net276
*680 net277
*681 net278
*682 net279
*683 net28
*684 net280
*685 net281
*686 net282
*687 net283
*688 net284
*689 net285
*690 net286
*691 net287
*692 net288
*693 net289
*694 net29
*695 net290
*696 net291
*697 net292
*698 net293
*699 net294
*700 net295
*701 net296
*702 net297
*703 net298
*704 net299
*705 net3
*706 net30
*707 net300
*708 net301
*709 net302
*710 net303
*711 net304
*712 net305
*713 net306
*714 net307
*715 net308
*716 net309
*717 net31
*718 net310
*719 net311
*720 net312
*721 net313
*722 net314
*723 net315
*724 net316
*725 net317
*726 net318
*727 net319
*728 net32
*729 net320
*730 net321
*731 net322
*732 net323
*733 net324
*734 net325
*735 net326
*736 net327
*737 net328
*738 net329
*739 net33
*740 net330
*741 net331
*742 net332
*743 net333
*744 net334
*745 net335
*746 net336
*747 net337
*748 net338
*749 net339
*750 net34
*751 net340
*752 net341
*753 net342
*754 net343
*755 net344
*756 net345
*757 net346
*758 net347
*759 net348
*760 net349
*761 net35
*762 net350
*763 net351
*764 net352
*765 net353
*766 net354
*767 net355
*768 net356
*769 net357
*770 net358
*771 net359
*772 net36
*773 net360
*774 net361
*775 net362
*776 net363
*777 net364
*778 net365
*779 net366
*780 net367
*781 net368
*782 net369
*783 net37
*784 net370
*785 net371
*786 net372
*787 net373
*788 net374
*789 net375
*790 net376
*791 net377
*792 net378
*793 net379
*794 net38
*795 net380
*796 net381
*797 net382
*798 net383
*799 net384
*800 net385
*801 net386
*802 net387
*803 net388
*804 net389
*805 net39
*806 net390
*807 net391
*808 net392
*809 net393
*810 net394
*811 net395
*812 net396
*813 net397
*814 net398
*815 net399
*816 net4
*817 net40
*818 net400
*819 net401
*820 net402
*821 net403
*822 net404
*823 net405
*824 net406
*825 net407
*826 net408
*827 net409
*828 net41
*829 net410
*830 net411
*831 net412
*832 net413
*833 net414
*834 net415
*835 net416
*836 net417
*837 net418
*838 net419
*839 net42
*840 net420
*841 net421
*842 net422
*843 net423
*844 net424
*845 net425
*846 net426
*847 net427
*848 net428
*849 net429
*850 net43
*851 net430
*852 net431
*853 net432
*854 net433
*855 net434
*856 net435
*857 net436
*858 net437
*859 net438
*860 net439
*861 net44
*862 net440
*863 net441
*864 net442
*865 net443
*866 net444
*867 net445
*868 net446
*869 net447
*870 net448
*871 net449
*872 net45
*873 net450
*874 net451
*875 net452
*876 net453
*877 net454
*878 net455
*879 net456
*880 net457
*881 net458
*882 net459
*883 net46
*884 net460
*885 net461
*886 net462
*887 net463
*888 net464
*889 net465
*890 net466
*891 net467
*892 net468
*893 net469
*894 net47
*895 net470
*896 net471
*897 net472
*898 net473
*899 net474
*900 net475
*901 net476
*902 net477
*903 net478
*904 net479
*905 net48
*906 net480
*907 net481
*908 net482
*909 net483
*910 net484
*911 net485
*912 net486
*913 net487
*914 net488
*915 net489
*916 net49
*917 net490
*918 net491
*919 net492
*920 net493
*921 net494
*922 net495
*923 net496
*924 net497
*925 net498
*926 net499
*927 net5
*928 net50
*929 net500
*930 net501
*931 net502
*932 net503
*933 net504
*934 net505
*935 net506
*936 net507
*937 net508
*938 net509
*939 net51
*940 net510
*941 net511
*942 net512
*943 net513
*944 net514
*945 net515
*946 net516
*947 net517
*948 net518
*949 net519
*950 net52
*951 net520
*952 net521
*953 net522
*954 net523
*955 net524
*956 net525
*957 net526
*958 net527
*959 net528
*960 net529
*961 net53
*962 net530
*963 net531
*964 net532
*965 net533
*966 net534
*967 net535
*968 net536
*969 net537
*970 net538
*971 net539
*972 net54
*973 net540
*974 net541
*975 net542
*976 net543
*977 net544
*978 net545
*979 net546
*980 net547
*981 net548
*982 net549
*983 net55
*984 net550
*985 net551
*986 net552
*987 net553
*988 net554
*989 net555
*990 net556
*991 net557
*992 net558
*993 net559
*994 net56
*995 net560
*996 net561
*997 net562
*998 net563
*999 net564
*1000 net565
*1001 net566
*1002 net567
*1003 net568
*1004 net569
*1005 net57
*1006 net570
*1007 net571
*1008 net572
*1009 net573
*1010 net574
*1011 net575
*1012 net576
*1013 net577
*1014 net578
*1015 net579
*1016 net58
*1017 net580
*1018 net581
*1019 net582
*1020 net583
*1021 net584
*1022 net585
*1023 net586
*1024 net587
*1025 net588
*1026 net589
*1027 net59
*1028 net590
*1029 net591
*1030 net592
*1031 net593
*1032 net594
*1033 net595
*1034 net596
*1035 net597
*1036 net598
*1037 net599
*1038 net6
*1039 net60
*1040 net600
*1041 net601
*1042 net602
*1043 net603
*1044 net604
*1045 net605
*1046 net606
*1047 net607
*1048 net608
*1049 net609
*1050 net61
*1051 net610
*1052 net611
*1053 net612
*1054 net613
*1055 net614
*1056 net615
*1057 net616
*1058 net617
*1059 net618
*1060 net619
*1061 net62
*1062 net620
*1063 net621
*1064 net622
*1065 net623
*1066 net624
*1067 net625
*1068 net626
*1069 net627
*1070 net628
*1071 net629
*1072 net63
*1073 net630
*1074 net631
*1075 net632
*1076 net633
*1077 net634
*1078 net635
*1079 net636
*1080 net637
*1081 net638
*1082 net639
*1083 net64
*1084 net640
*1085 net641
*1086 net642
*1087 net643
*1088 net644
*1089 net645
*1090 net646
*1091 net647
*1092 net648
*1093 net649
*1094 net65
*1095 net650
*1096 net651
*1097 net652
*1098 net653
*1099 net654
*1100 net655
*1101 net656
*1102 net657
*1103 net658
*1104 net659
*1105 net66
*1106 net660
*1107 net661
*1108 net662
*1109 net663
*1110 net664
*1111 net665
*1112 net666
*1113 net667
*1114 net668
*1115 net669
*1116 net67
*1117 net670
*1118 net671
*1119 net672
*1120 net673
*1121 net674
*1122 net675
*1123 net676
*1124 net677
*1125 net678
*1126 net679
*1127 net68
*1128 net680
*1129 net681
*1130 net682
*1131 net683
*1132 net684
*1133 net685
*1134 net686
*1135 net687
*1136 net688
*1137 net689
*1138 net69
*1139 net690
*1140 net691
*1141 net692
*1142 net693
*1143 net694
*1144 net695
*1145 net696
*1146 net697
*1147 net698
*1148 net699
*1149 net7
*1150 net70
*1151 net700
*1152 net701
*1153 net702
*1154 net703
*1155 net704
*1156 net705
*1157 net706
*1158 net707
*1159 net708
*1160 net709
*1161 net71
*1162 net710
*1163 net711
*1164 net712
*1165 net713
*1166 net714
*1167 net715
*1168 net716
*1169 net717
*1170 net718
*1171 net719
*1172 net72
*1173 net720
*1174 net721
*1175 net722
*1176 net723
*1177 net724
*1178 net725
*1179 net726
*1180 net727
*1181 net728
*1182 net729
*1183 net73
*1184 net730
*1185 net731
*1186 net732
*1187 net733
*1188 net734
*1189 net735
*1190 net736
*1191 net737
*1192 net738
*1193 net739
*1194 net74
*1195 net740
*1196 net741
*1197 net742
*1198 net743
*1199 net744
*1200 net745
*1201 net746
*1202 net747
*1203 net748
*1204 net749
*1205 net75
*1206 net750
*1207 net751
*1208 net752
*1209 net753
*1210 net754
*1211 net755
*1212 net756
*1213 net757
*1214 net758
*1215 net759
*1216 net76
*1217 net760
*1218 net761
*1219 net762
*1220 net763
*1221 net764
*1222 net765
*1223 net766
*1224 net767
*1225 net768
*1226 net769
*1227 net77
*1228 net770
*1229 net771
*1230 net772
*1231 net773
*1232 net774
*1233 net775
*1234 net776
*1235 net777
*1236 net778
*1237 net779
*1238 net78
*1239 net780
*1240 net781
*1241 net782
*1242 net783
*1243 net784
*1244 net785
*1245 net786
*1246 net787
*1247 net788
*1248 net789
*1249 net79
*1250 net790
*1251 net791
*1252 net792
*1253 net793
*1254 net794
*1255 net795
*1256 net796
*1257 net797
*1258 net798
*1259 net799
*1260 net8
*1261 net80
*1262 net800
*1263 net801
*1264 net802
*1265 net803
*1266 net804
*1267 net805
*1268 net806
*1269 net807
*1270 net808
*1271 net809
*1272 net81
*1273 net810
*1274 net811
*1275 net812
*1276 net813
*1277 net814
*1278 net815
*1279 net816
*1280 net817
*1281 net818
*1282 net819
*1283 net82
*1284 net820
*1285 net821
*1286 net822
*1287 net823
*1288 net824
*1289 net825
*1290 net826
*1291 net827
*1292 net828
*1293 net829
*1294 net83
*1295 net830
*1296 net831
*1297 net832
*1298 net833
*1299 net834
*1300 net835
*1301 net836
*1302 net837
*1303 net838
*1304 net839
*1305 net84
*1306 net840
*1307 net841
*1308 net842
*1309 net843
*1310 net844
*1311 net845
*1312 net846
*1313 net847
*1314 net848
*1315 net849
*1316 net85
*1317 net850
*1318 net851
*1319 net852
*1320 net853
*1321 net854
*1322 net855
*1323 net856
*1324 net857
*1325 net858
*1326 net859
*1327 net86
*1328 net860
*1329 net861
*1330 net862
*1331 net863
*1332 net864
*1333 net865
*1334 net866
*1335 net867
*1336 net868
*1337 net869
*1338 net87
*1339 net870
*1340 net871
*1341 net872
*1342 net873
*1343 net874
*1344 net875
*1345 net876
*1346 net877
*1347 net878
*1348 net879
*1349 net88
*1350 net880
*1351 net881
*1352 net882
*1353 net883
*1354 net884
*1355 net885
*1356 net886
*1357 net887
*1358 net888
*1359 net889
*1360 net89
*1361 net890
*1362 net891
*1363 net892
*1364 net893
*1365 net894
*1366 net895
*1367 net896
*1368 net897
*1369 net898
*1370 net899
*1371 net9
*1372 net90
*1373 net900
*1374 net901
*1375 net902
*1376 net903
*1377 net904
*1378 net905
*1379 net906
*1380 net907
*1381 net908
*1382 net909
*1383 net91
*1384 net910
*1385 net911
*1386 net912
*1387 net913
*1388 net914
*1389 net915
*1390 net916
*1391 net917
*1392 net918
*1393 net919
*1394 net92
*1395 net920
*1396 net921
*1397 net922
*1398 net923
*1399 net924
*1400 net925
*1401 net926
*1402 net927
*1403 net928
*1404 net929
*1405 net93
*1406 net930
*1407 net931
*1408 net932
*1409 net933
*1410 net934
*1411 net935
*1412 net936
*1413 net937
*1414 net938
*1415 net939
*1416 net94
*1417 net940
*1418 net941
*1419 net942
*1420 net943
*1421 net944
*1422 net945
*1423 net946
*1424 net947
*1425 net948
*1426 net949
*1427 net95
*1428 net950
*1429 net951
*1430 net952
*1431 net953
*1432 net954
*1433 net955
*1434 net956
*1435 net957
*1436 net958
*1437 net959
*1438 net96
*1439 net960
*1440 net961
*1441 net962
*1442 net963
*1443 net964
*1444 net965
*1445 net966
*1446 net967
*1447 net968
*1448 net969
*1449 net97
*1450 net970
*1451 net971
*1452 net972
*1453 net973
*1454 net974
*1455 net975
*1456 net976
*1457 net977
*1458 net978
*1459 net979
*1460 net98
*1461 net980
*1462 net981
*1463 net982
*1464 net983
*1465 net984
*1466 net985
*1467 net986
*1468 net987
*1469 net988
*1470 net989
*1471 net99
*1472 net990
*1473 net991
*1474 net992
*1475 net993
*1476 net994
*1477 net995
*1478 net996
*1479 net997
*1480 net998
*1481 net999
*1482 ANTENNA_c101_S0
*1483 ANTENNA_c103_A3
*1484 ANTENNA_c103_S1
*1485 ANTENNA_c104_CLK
*1486 ANTENNA_c104_Q
*1487 ANTENNA_c104_Q_N
*1488 ANTENNA_c104_RESET_B
*1489 ANTENNA_c105_A
*1490 ANTENNA_c107_CLK
*1491 ANTENNA_c107_Q
*1492 ANTENNA_c107_Q_N
*1493 ANTENNA_c107_RESET_B
*1494 ANTENNA_c107_SCD
*1495 ANTENNA_c109_CLK_N
*1496 ANTENNA_c109_Q
*1497 ANTENNA_c109_Q_N
*1498 ANTENNA_c109_RESET_B
*1499 ANTENNA_c109_SCE
*1500 ANTENNA_c111_A
*1501 ANTENNA_c112_B
*1502 ANTENNA_c112_C
*1503 ANTENNA_c113_B
*1504 ANTENNA_c114_A
*1505 ANTENNA_c114_B
*1506 ANTENNA_c117_A_N
*1507 ANTENNA_c118_C1
*1508 ANTENNA_c119_CLK_N
*1509 ANTENNA_c119_SCD
*1510 ANTENNA_c120_B_N
*1511 ANTENNA_c121_B
*1512 ANTENNA_c121_C
*1513 ANTENNA_c122_CLK
*1514 ANTENNA_c124_A
*1515 ANTENNA_c125_B1
*1516 ANTENNA_c125_B2
*1517 ANTENNA_c126_A1
*1518 ANTENNA_c126_A2
*1519 ANTENNA_c126_A3
*1520 ANTENNA_c126_S0
*1521 ANTENNA_c126_S1
*1522 ANTENNA_c127_B1
*1523 ANTENNA_c127_B2
*1524 ANTENNA_c128_A1
*1525 ANTENNA_c128_A3
*1526 ANTENNA_c128_S0
*1527 ANTENNA_c129_A
*1528 ANTENNA_c130_S1
*1529 ANTENNA_c131_CLK_N
*1530 ANTENNA_c131_RESET_B
*1531 ANTENNA_c131_SCE
*1532 ANTENNA_c132_X
*1533 ANTENNA_c133_Y
*1534 ANTENNA_c134_A_N
*1535 ANTENNA_c135_B1
*1536 ANTENNA_c135_C1
*1537 ANTENNA_c136_C
*1538 ANTENNA_c137_B
*1539 ANTENNA_c137_C_N
*1540 ANTENNA_c137_X
*1541 ANTENNA_c138_B
*1542 ANTENNA_c138_X
*1543 ANTENNA_c139_A
*1544 ANTENNA_c139_Y
*1545 ANTENNA_c141_Y
*1546 ANTENNA_c142_B
*1547 ANTENNA_c142_C
*1548 ANTENNA_c142_X
*1549 ANTENNA_c143_A
*1550 ANTENNA_c144_Y
*1551 ANTENNA_c145_A1
*1552 ANTENNA_c145_A2
*1553 ANTENNA_c145_S0
*1554 ANTENNA_c146_A
*1555 ANTENNA_c146_B
*1556 ANTENNA_c146_X
*1557 ANTENNA_c147_X
*1558 ANTENNA_c148_A
*1559 ANTENNA_c148_B
*1560 ANTENNA_c148_C
*1561 ANTENNA_c149_A
*1562 ANTENNA_c150_B
*1563 ANTENNA_c150_C
*1564 ANTENNA_c151_C
*1565 ANTENNA_c152_A2
*1566 ANTENNA_c152_C1
*1567 ANTENNA_c153_CLK
*1568 ANTENNA_c153_Q
*1569 ANTENNA_c153_SCD
*1570 ANTENNA_c153_SCE
*1571 ANTENNA_c154_B
*1572 ANTENNA_c155_B
*1573 ANTENNA_c156_B
*1574 ANTENNA_c156_Y
*1575 ANTENNA_c157_Y
*1576 ANTENNA_c160_A2
*1577 ANTENNA_c160_B1
*1578 ANTENNA_c161_A2
*1579 ANTENNA_c161_B1
*1580 ANTENNA_c163_A3
*1581 ANTENNA_c163_S0
*1582 ANTENNA_c164_A2
*1583 ANTENNA_c164_B1
*1584 ANTENNA_c167_A
*1585 ANTENNA_c168_CLK
*1586 ANTENNA_c168_SCE
*1587 ANTENNA_c169_C
*1588 ANTENNA_c170_C1
*1589 ANTENNA_c171_B2
*1590 ANTENNA_c172_CLK_N
*1591 ANTENNA_c172_D
*1592 ANTENNA_c173_CLK_N
*1593 ANTENNA_c174_S1
*1594 ANTENNA_c175_S1
*1595 ANTENNA_c177_X
*1596 ANTENNA_c178_A
*1597 ANTENNA_c180_B
*1598 ANTENNA_c181_A_N
*1599 ANTENNA_c182_C
*1600 ANTENNA_c183_X
*1601 ANTENNA_c184_B
*1602 ANTENNA_c184_X
*1603 ANTENNA_c186_X
*1604 ANTENNA_c187_A
*1605 ANTENNA_c189_A2
*1606 ANTENNA_c189_S1
*1607 ANTENNA_c190_B
*1608 ANTENNA_c190_C
*1609 ANTENNA_c191_B
*1610 ANTENNA_c193_A0
*1611 ANTENNA_c193_A1
*1612 ANTENNA_c193_S0
*1613 ANTENNA_c194_A
*1614 ANTENNA_c194_Y
*1615 ANTENNA_c196_A1
*1616 ANTENNA_c196_A3
*1617 ANTENNA_c196_S0
*1618 ANTENNA_c196_S1
*1619 ANTENNA_c197_A3
*1620 ANTENNA_c197_S0
*1621 ANTENNA_c198_A_N
*1622 ANTENNA_c198_C
*1623 ANTENNA_c199_B1
*1624 ANTENNA_c199_C1
*1625 ANTENNA_c201_A
*1626 ANTENNA_c201_X
*1627 ANTENNA_c202_Y
*1628 ANTENNA_c206_B
*1629 ANTENNA_c206_Y
*1630 ANTENNA_c207_A
*1631 ANTENNA_c208_Y
*1632 ANTENNA_c209_X
*1633 ANTENNA_c210_X
*1634 ANTENNA_c211_C
*1635 ANTENNA_c211_Y
*1636 ANTENNA_c212_CLK
*1637 ANTENNA_c212_SCD
*1638 ANTENNA_c212_SCE
*1639 ANTENNA_c213_A1
*1640 ANTENNA_c214_2_A
*1641 ANTENNA_c214_3_A
*1642 ANTENNA_c215_Y
*1643 ANTENNA_c216_A1
*1644 ANTENNA_c216_B1
*1645 ANTENNA_c216_X
*1646 ANTENNA_c217_A2
*1647 ANTENNA_c218_A1
*1648 ANTENNA_c218_A2
*1649 ANTENNA_c218_S0
*1650 ANTENNA_c219_A0
*1651 ANTENNA_c219_A1
*1652 ANTENNA_c219_A3
*1653 ANTENNA_c220_B
*1654 ANTENNA_c221_B_N
*1655 ANTENNA_c221_Y
*1656 ANTENNA_c222_A1
*1657 ANTENNA_c222_C1
*1658 ANTENNA_c223_A
*1659 ANTENNA_c224_A
*1660 ANTENNA_c226_B_N
*1661 ANTENNA_c227_CLK
*1662 ANTENNA_c227_SCD
*1663 ANTENNA_c228_A2
*1664 ANTENNA_c228_C1
*1665 ANTENNA_c229_A1
*1666 ANTENNA_c229_C1
*1667 ANTENNA_c230_B1
*1668 ANTENNA_c231_B1
*1669 ANTENNA_c231_C1
*1670 ANTENNA_c233_CLK
*1671 ANTENNA_c233_SCD
*1672 ANTENNA_c234_A
*1673 ANTENNA_c235_CLK
*1674 ANTENNA_c235_D
*1675 ANTENNA_c235_SCD
*1676 ANTENNA_c235_SCE
*1677 ANTENNA_c236_S0
*1678 ANTENNA_c237_A1
*1679 ANTENNA_c239_CLK
*1680 ANTENNA_c241_B2
*1681 ANTENNA_c242_A
*1682 ANTENNA_c242_X
*1683 ANTENNA_c243_B
*1684 ANTENNA_c245_A
*1685 ANTENNA_c246_A
*1686 ANTENNA_c246_X
*1687 ANTENNA_c247_B
*1688 ANTENNA_c247_C_N
*1689 ANTENNA_c249_A2
*1690 ANTENNA_c249_A3
*1691 ANTENNA_c249_S1
*1692 ANTENNA_c251_A0
*1693 ANTENNA_c251_A3
*1694 ANTENNA_c253_B
*1695 ANTENNA_c254_CLK_N
*1696 ANTENNA_c255_A
*1697 ANTENNA_c257_A3
*1698 ANTENNA_c258_B
*1699 ANTENNA_c260_S0
*1700 ANTENNA_c260_S1
*1701 ANTENNA_c261_A0
*1702 ANTENNA_c263_B1
*1703 ANTENNA_c263_X
*1704 ANTENNA_c264_A_N
*1705 ANTENNA_c264_Y
*1706 ANTENNA_c265_B
*1707 ANTENNA_c265_X
*1708 ANTENNA_c269_A
*1709 ANTENNA_c269_X
*1710 ANTENNA_c271_Y
*1711 ANTENNA_c272_Y
*1712 ANTENNA_c273_X
*1713 ANTENNA_c274_B
*1714 ANTENNA_c276_B
*1715 ANTENNA_c276_C_N
*1716 ANTENNA_c277_A
*1717 ANTENNA_c278_Y
*1718 ANTENNA_c280_A
*1719 ANTENNA_c280_B
*1720 ANTENNA_c280_C
*1721 ANTENNA_c280_X
*1722 ANTENNA_c281_S0
*1723 ANTENNA_c281_S1
*1724 ANTENNA_c282_CLK_N
*1725 ANTENNA_c282_SCD
*1726 ANTENNA_c282_SCE
*1727 ANTENNA_c283_A1
*1728 ANTENNA_c283_A2
*1729 ANTENNA_c283_S0
*1730 ANTENNA_c284_CLK_N
*1731 ANTENNA_c284_Q
*1732 ANTENNA_c284_Q_N
*1733 ANTENNA_c284_SCE
*1734 ANTENNA_c285_A0
*1735 ANTENNA_c285_A2
*1736 ANTENNA_c285_S0
*1737 ANTENNA_c285_X
*1738 ANTENNA_c286_A_N
*1739 ANTENNA_c286_B
*1740 ANTENNA_c287_B_N
*1741 ANTENNA_c287_Y
*1742 ANTENNA_c288_A0
*1743 ANTENNA_c288_S1
*1744 ANTENNA_c290_B_N
*1745 ANTENNA_c291_B
*1746 ANTENNA_c292_B_N
*1747 ANTENNA_c297_B1
*1748 ANTENNA_c297_Y
*1749 ANTENNA_c298_A2
*1750 ANTENNA_c298_B2
*1751 ANTENNA_c298_X
*1752 ANTENNA_c301_B1
*1753 ANTENNA_c301_X
*1754 ANTENNA_c302_A
*1755 ANTENNA_c303_X
*1756 ANTENNA_c304_S1
*1757 ANTENNA_c305_B
*1758 ANTENNA_c306_C_N
*1759 ANTENNA_c307_A1
*1760 ANTENNA_c307_S0
*1761 ANTENNA_c307_S1
*1762 ANTENNA_c308_B
*1763 ANTENNA_c308_C
*1764 ANTENNA_c310_X
*1765 ANTENNA_c311_Y
*1766 ANTENNA_c313_A1
*1767 ANTENNA_c313_A3
*1768 ANTENNA_c313_S0
*1769 ANTENNA_c314_A1
*1770 ANTENNA_c314_A2
*1771 ANTENNA_c314_A3
*1772 ANTENNA_c314_S1
*1773 ANTENNA_c315_A2
*1774 ANTENNA_c315_B1
*1775 ANTENNA_c315_C1
*1776 ANTENNA_c316_B
*1777 ANTENNA_c317_A1
*1778 ANTENNA_c317_A2
*1779 ANTENNA_c317_S1
*1780 ANTENNA_c318_X
*1781 ANTENNA_c319_CLK
*1782 ANTENNA_c319_SCE
*1783 ANTENNA_c320_A
*1784 ANTENNA_c320_B
*1785 ANTENNA_c321_B
*1786 ANTENNA_c321_C
*1787 ANTENNA_c323_C
*1788 ANTENNA_c323_Y
*1789 ANTENNA_c324_B1
*1790 ANTENNA_c324_C1
*1791 ANTENNA_c325_CLK
*1792 ANTENNA_c325_Q
*1793 ANTENNA_c325_SCD
*1794 ANTENNA_c326_CLK
*1795 ANTENNA_c326_DE
*1796 ANTENNA_c326_Q
*1797 ANTENNA_c326_SCD
*1798 ANTENNA_c326_SCE
*1799 ANTENNA_c327_CLK
*1800 ANTENNA_c327_DE
*1801 ANTENNA_c328_A_N
*1802 ANTENNA_c328_B
*1803 ANTENNA_c328_C
*1804 ANTENNA_c329_A
*1805 ANTENNA_c330_A_N
*1806 ANTENNA_c330_B
*1807 ANTENNA_c331_A2
*1808 ANTENNA_c331_B1
*1809 ANTENNA_c331_C1
*1810 ANTENNA_c332_A1
*1811 ANTENNA_c332_B1
*1812 ANTENNA_c332_B2
*1813 ANTENNA_c333_X
*1814 ANTENNA_c335_A
*1815 ANTENNA_c336_A1
*1816 ANTENNA_c337_A
*1817 ANTENNA_c338_Y
*1818 ANTENNA_c342_C_N
*1819 ANTENNA_c342_Y
*1820 ANTENNA_c343_B
*1821 ANTENNA_c344_B2
*1822 ANTENNA_c344_C1
*1823 ANTENNA_c345_A
*1824 ANTENNA_c346_C1
*1825 ANTENNA_c346_Y
*1826 ANTENNA_c347_A0
*1827 ANTENNA_c347_A2
*1828 ANTENNA_c348_CLK
*1829 ANTENNA_c348_D
*1830 ANTENNA_c348_Q
*1831 ANTENNA_c348_Q_N
*1832 ANTENNA_c348_SCD
*1833 ANTENNA_c348_SCE
*1834 ANTENNA_c349_A2
*1835 ANTENNA_c349_A3
*1836 ANTENNA_c349_S0
*1837 ANTENNA_c349_S1
*1838 ANTENNA_c350_A3
*1839 ANTENNA_c350_S0
*1840 ANTENNA_c351_A0
*1841 ANTENNA_c351_A3
*1842 ANTENNA_c351_S0
*1843 ANTENNA_c352_13_A
*1844 ANTENNA_c352_14_A
*1845 ANTENNA_c352_15_A
*1846 ANTENNA_c352_16_A
*1847 ANTENNA_c352_17_A
*1848 ANTENNA_c352_18_A
*1849 ANTENNA_c352_19_A
*1850 ANTENNA_c353_A
*1851 ANTENNA_c355_A3
*1852 ANTENNA_c355_S0
*1853 ANTENNA_c355_S1
*1854 ANTENNA_c357_B2
*1855 ANTENNA_c358_A_N