*SPEF "ieee 1481-1999"
*DESIGN "netlist_1"
*DATE "22:20:23 Friday July 19, 2024"
*VENDOR "The OpenROAD Project"
*PROGRAM "OpenROAD"
*VERSION "d423155d69de7f683a23f6916ead418a615ad4ad"
*DESIGN_FLOW "NAME_SCOPE LOCAL" "PIN_CAP NONE"
*DIVIDER /
*DELIMITER :
*BUS_DELIMITER []
*T_UNIT 1 NS
*C_UNIT 1 PF
*R_UNIT 1 OHM
*L_UNIT 1 HENRY

*NAME_MAP
*3 clk
*4 in0
*5 in1
*6 in10
*7 in11
*8 in12
*9 in13
*10 in14
*11 in15
*12 in16
*13 in17
*14 in18
*15 in19
*16 in2
*17 in20
*18 in21
*19 in22
*20 in23
*21 in24
*22 in25
*23 in26
*24 in27
*25 in28
*26 in29
*27 in3
*28 in30
*29 in31
*30 in32
*31 in33
*32 in34
*33 in35
*34 in36
*35 in37
*36 in38
*37 in39
*38 in4
*39 in40
*40 in41
*41 in42
*42 in43
*43 in44
*44 in45
*45 in46
*46 in47
*47 in48
*48 in49
*49 in5
*50 in50
*51 in51
*52 in52
*53 in53
*54 in54
*55 in55
*56 in56
*57 in57
*58 in58
*59 in59
*60 in6
*61 in60
*62 in61
*63 in7
*64 in8
*65 in9
*66 out0
*67 out1
*68 out10
*69 out11
*70 out12
*71 out13
*72 out14
*73 out15
*74 out16
*75 out17
*76 out18
*77 out19
*78 out2
*79 out20
*80 out21
*81 out22
*82 out23
*83 out24
*84 out25
*85 out26
*86 out27
*87 out28
*88 out29
*89 out3
*90 out30
*91 out31
*92 out32
*93 out33
*94 out34
*95 out35
*96 out36
*97 out37
*98 out38
*99 out39
*100 out4
*101 out40
*102 out41
*103 out42
*104 out43
*105 out44
*106 out45
*107 out46
*108 out47
*109 out48
*110 out49
*111 out5
*112 out50
*113 out51
*114 out52
*115 out53
*116 out54
*117 out55
*118 out56
*119 out57
*120 out58
*121 out59
*122 out6
*123 out60
*124 out61
*125 out7
*126 out8
*127 out9
*128 rst
*129 clknet_0_clk
*130 clknet_0_net231
*131 clknet_0_net238
*132 clknet_0_net243
*133 clknet_0_net281
*134 clknet_0_net285
*135 clknet_0_net286
*136 clknet_0_net287
*137 clknet_0_net288
*138 clknet_0_net289
*139 clknet_0_net338
*140 clknet_0_net356
*141 clknet_0_net361
*142 clknet_0_net370
*143 clknet_0_net377
*144 clknet_0_net394
*145 clknet_0_net458
*146 clknet_0_net459
*147 clknet_0_net473
*148 clknet_0_net549
*149 clknet_0_net568
*150 clknet_0_net685
*151 clknet_0_net686
*152 clknet_0_net687
*153 clknet_0_net697
*154 clknet_0_net698
*155 clknet_0_net699
*156 clknet_0_net715
*157 clknet_0_net748
*158 clknet_0_net749
*159 clknet_0_net843
*160 clknet_0_net850
*161 clknet_0_net857
*162 clknet_0_net873
*163 clknet_1_0__leaf_net231
*164 clknet_1_0__leaf_net238
*165 clknet_1_0__leaf_net243
*166 clknet_1_0__leaf_net281
*167 clknet_1_0__leaf_net285
*168 clknet_1_0__leaf_net286
*169 clknet_1_0__leaf_net287
*170 clknet_1_0__leaf_net288
*171 clknet_1_0__leaf_net289
*172 clknet_1_0__leaf_net338
*173 clknet_1_0__leaf_net356
*174 clknet_1_0__leaf_net361
*175 clknet_1_0__leaf_net370
*176 clknet_1_0__leaf_net377
*177 clknet_1_0__leaf_net394
*178 clknet_1_0__leaf_net458
*179 clknet_1_0__leaf_net459
*180 clknet_1_0__leaf_net473
*181 clknet_1_0__leaf_net549
*182 clknet_1_0__leaf_net568
*183 clknet_1_0__leaf_net685
*184 clknet_1_0__leaf_net686
*185 clknet_1_0__leaf_net687
*186 clknet_1_0__leaf_net697
*187 clknet_1_0__leaf_net698
*188 clknet_1_0__leaf_net699
*189 clknet_1_0__leaf_net715
*190 clknet_1_0__leaf_net748
*191 clknet_1_0__leaf_net749
*192 clknet_1_0__leaf_net843
*193 clknet_1_0__leaf_net850
*194 clknet_1_0__leaf_net857
*195 clknet_1_0__leaf_net873
*196 clknet_1_1__leaf_net231
*197 clknet_1_1__leaf_net238
*198 clknet_1_1__leaf_net243
*199 clknet_1_1__leaf_net281
*200 clknet_1_1__leaf_net285
*201 clknet_1_1__leaf_net286
*202 clknet_1_1__leaf_net287
*203 clknet_1_1__leaf_net288
*204 clknet_1_1__leaf_net289
*205 clknet_1_1__leaf_net338
*206 clknet_1_1__leaf_net356
*207 clknet_1_1__leaf_net361
*208 clknet_1_1__leaf_net370
*209 clknet_1_1__leaf_net377
*210 clknet_1_1__leaf_net394
*211 clknet_1_1__leaf_net458
*212 clknet_1_1__leaf_net459
*213 clknet_1_1__leaf_net473
*214 clknet_1_1__leaf_net549
*215 clknet_1_1__leaf_net568
*216 clknet_1_1__leaf_net685
*217 clknet_1_1__leaf_net686
*218 clknet_1_1__leaf_net687
*219 clknet_1_1__leaf_net697
*220 clknet_1_1__leaf_net698
*221 clknet_1_1__leaf_net699
*222 clknet_1_1__leaf_net715
*223 clknet_1_1__leaf_net748
*224 clknet_1_1__leaf_net749
*225 clknet_1_1__leaf_net843
*226 clknet_1_1__leaf_net850
*227 clknet_1_1__leaf_net857
*228 clknet_1_1__leaf_net873
*229 clknet_4_0_0_clk
*230 clknet_4_10_0_clk
*231 clknet_4_11_0_clk
*232 clknet_4_12_0_clk
*233 clknet_4_13_0_clk
*234 clknet_4_14_0_clk
*235 clknet_4_15_0_clk
*236 clknet_4_1_0_clk
*237 clknet_4_2_0_clk
*238 clknet_4_3_0_clk
*239 clknet_4_4_0_clk
*240 clknet_4_5_0_clk
*241 clknet_4_6_0_clk
*242 clknet_4_7_0_clk
*243 clknet_4_8_0_clk
*244 clknet_4_9_0_clk
*245 net0
*246 net1
*247 net10
*248 net100
*249 net1000
*250 net1001
*251 net1002
*252 net1003
*253 net1004
*254 net1005
*255 net1006
*256 net1007
*257 net1008
*258 net1009
*259 net101
*260 net1010
*261 net1011
*262 net1012
*263 net1013
*264 net1014
*265 net1015
*266 net1016
*267 net1017
*268 net1018
*269 net1019
*270 net102
*271 net1020
*272 net1021
*273 net103
*274 net104
*275 net105
*276 net106
*277 net107
*278 net108
*279 net109
*280 net11
*281 net110
*282 net111
*283 net112
*284 net113
*285 net114
*286 net115
*287 net116
*288 net117
*289 net118
*290 net119
*291 net12
*292 net120
*293 net121
*294 net122
*295 net123
*296 net124
*297 net125
*298 net126
*299 net127
*300 net128
*301 net129
*302 net13
*303 net130
*304 net131
*305 net132
*306 net133
*307 net134
*308 net135
*309 net136
*310 net137
*311 net138
*312 net139
*313 net14
*314 net140
*315 net141
*316 net142
*317 net143
*318 net144
*319 net145
*320 net146
*321 net147
*322 net148
*323 net149
*324 net15
*325 net150
*326 net151
*327 net152
*328 net153
*329 net154
*330 net155
*331 net156
*332 net157
*333 net158
*334 net159
*335 net16
*336 net160
*337 net161
*338 net162
*339 net163
*340 net164
*341 net165
*342 net166
*343 net167
*344 net168
*345 net169
*346 net17
*347 net170
*348 net171
*349 net172
*350 net173
*351 net174
*352 net175
*353 net176
*354 net177
*355 net178
*356 net179
*357 net18
*358 net180
*359 net181
*360 net182
*361 net183
*362 net184
*363 net185
*364 net186
*365 net187
*366 net188
*367 net189
*368 net19
*369 net190
*370 net191
*371 net192
*372 net193
*373 net194
*374 net195
*375 net196
*376 net197
*377 net198
*378 net199
*379 net2
*380 net20
*381 net200
*382 net201
*383 net202
*384 net203
*385 net204
*386 net205
*387 net206
*388 net207
*389 net208
*390 net209
*391 net21
*392 net210
*393 net211
*394 net212
*395 net213
*396 net214
*397 net215
*398 net216
*399 net217
*400 net218
*401 net219
*402 net22
*403 net220
*404 net221
*405 net222
*406 net223
*407 net224
*408 net225
*409 net226
*410 net227
*411 net228
*412 net229
*413 net23
*414 net230
*415 net231
*416 net232
*417 net233
*418 net234
*419 net235
*420 net236
*421 net237
*422 net238
*423 net239
*424 net24
*425 net240
*426 net241
*427 net242
*428 net243
*429 net244
*430 net245
*431 net246
*432 net247
*433 net248
*434 net249
*435 net25
*436 net250
*437 net251
*438 net252
*439 net253
*440 net254
*441 net255
*442 net256
*443 net257
*444 net258
*445 net259
*446 net26
*447 net260
*448 net261
*449 net262
*450 net263
*451 net264
*452 net265
*453 net266
*454 net267
*455 net268
*456 net269
*457 net27
*458 net270
*459 net271
*460 net272
*461 net273
*462 net274
*463 net275
*464 net276
*465 net277
*466 net278
*467 net279
*468 net28
*469 net280
*470 net281
*471 net282
*472 net283
*473 net284
*474 net285
*475 net286
*476 net287
*477 net288
*478 net289
*479 net29
*480 net290
*481 net291
*482 net292
*483 net293
*484 net294
*485 net295
*486 net296
*487 net297
*488 net298
*489 net299
*490 net3
*491 net30
*492 net300
*493 net301
*494 net302
*495 net303
*496 net304
*497 net305
*498 net306
*499 net307
*500 net308
*501 net309
*502 net31
*503 net310
*504 net311
*505 net312
*506 net313
*507 net314
*508 net315
*509 net316
*510 net317
*511 net318
*512 net319
*513 net32
*514 net320
*515 net321
*516 net322
*517 net323
*518 net324
*519 net325
*520 net326
*521 net327
*522 net328
*523 net329
*524 net33
*525 net330
*526 net331
*527 net332
*528 net333
*529 net334
*530 net335
*531 net336
*532 net337
*533 net338
*534 net339
*535 net34
*536 net340
*537 net341
*538 net342
*539 net343
*540 net344
*541 net345
*542 net346
*543 net347
*544 net348
*545 net349
*546 net35
*547 net350
*548 net351
*549 net352
*550 net353
*551 net354
*552 net355
*553 net356
*554 net357
*555 net358
*556 net359
*557 net36
*558 net360
*559 net361
*560 net362
*561 net363
*562 net364
*563 net365
*564 net366
*565 net367
*566 net368
*567 net369
*568 net37
*569 net370
*570 net371
*571 net372
*572 net373
*573 net374
*574 net375
*575 net376
*576 net377
*577 net378
*578 net379
*579 net38
*580 net380
*581 net381
*582 net382
*583 net383
*584 net384
*585 net385
*586 net386
*587 net387
*588 net388
*589 net389
*590 net39
*591 net390
*592 net391
*593 net392
*594 net393
*595 net394
*596 net395
*597 net396
*598 net397
*599 net398
*600 net399
*601 net4
*602 net40
*603 net400
*604 net401
*605 net402
*606 net403
*607 net404
*608 net405
*609 net406
*610 net407
*611 net408
*612 net409
*613 net41
*614 net410
*615 net411
*616 net412
*617 net413
*618 net414
*619 net415
*620 net416
*621 net417
*622 net418
*623 net419
*624 net42
*625 net420
*626 net421
*627 net422
*628 net423
*629 net424
*630 net425
*631 net426
*632 net427
*633 net428
*634 net429
*635 net43
*636 net430
*637 net431
*638 net432
*639 net433
*640 net434
*641 net435
*642 net436
*643 net437
*644 net438
*645 net439
*646 net44
*647 net440
*648 net441
*649 net442
*650 net443
*651 net444
*652 net445
*653 net446
*654 net447
*655 net448
*656 net449
*657 net45
*658 net450
*659 net451
*660 net452
*661 net453
*662 net454
*663 net455
*664 net456
*665 net457
*666 net458
*667 net459
*668 net46
*669 net460
*670 net461
*671 net462
*672 net463
*673 net464
*674 net465
*675 net466
*676 net467
*677 net468
*678 net469
*679 net47
*680 net470
*681 net471
*682 net472
*683 net473
*684 net474
*685 net475
*686 net476
*687 net477
*688 net478
*689 net479
*690 net48
*691 net480
*692 net481
*693 net482
*694 net483
*695 net484
*696 net485
*697 net486
*698 net487
*699 net488
*700 net489
*701 net49
*702 net490
*703 net491
*704 net492
*705 net493
*706 net494
*707 net495
*708 net496
*709 net497
*710 net498
*711 net499
*712 net5
*713 net50
*714 net500
*715 net501
*716 net502
*717 net503
*718 net504
*719 net505
*720 net506
*721 net507
*722 net508
*723 net509
*724 net51
*725 net510
*726 net511
*727 net512
*728 net513
*729 net514
*730 net515
*731 net516
*732 net517
*733 net518
*734 net519
*735 net52
*736 net520
*737 net521
*738 net522
*739 net523
*740 net524
*741 net525
*742 net526
*743 net527
*744 net528
*745 net529
*746 net53
*747 net530
*748 net531
*749 net532
*750 net533
*751 net534
*752 net535
*753 net536
*754 net537
*755 net538
*756 net539
*757 net54
*758 net540
*759 net541
*760 net542
*761 net543
*762 net544
*763 net545
*764 net546
*765 net547
*766 net548
*767 net549
*768 net55
*769 net550
*770 net551
*771 net552
*772 net553
*773 net554
*774 net555
*775 net556
*776 net557
*777 net558
*778 net559
*779 net56
*780 net560
*781 net561
*782 net562
*783 net563
*784 net564
*785 net565
*786 net566
*787 net567
*788 net568
*789 net569
*790 net57
*791 net570
*792 net571
*793 net572
*794 net573
*795 net574
*796 net575
*797 net576
*798 net577
*799 net578
*800 net579
*801 net58
*802 net580
*803 net581
*804 net582
*805 net583
*806 net584
*807 net585
*808 net586
*809 net587
*810 net588
*811 net589
*812 net59
*813 net590
*814 net591
*815 net592
*816 net593
*817 net594
*818 net595
*819 net596
*820 net597
*821 net598
*822 net599
*823 net6
*824 net60
*825 net600
*826 net601
*827 net602
*828 net603
*829 net604
*830 net605
*831 net606
*832 net607
*833 net608
*834 net609
*835 net61
*836 net610
*837 net611
*838 net612
*839 net613
*840 net614
*841 net615
*842 net616
*843 net617
*844 net618
*845 net619
*846 net62
*847 net620
*848 net621
*849 net622
*850 net623
*851 net624
*852 net625
*853 net626
*854 net627
*855 net628
*856 net629
*857 net63
*858 net630
*859 net631
*860 net632
*861 net633
*862 net634
*863 net635
*864 net636
*865 net637
*866 net638
*867 net639
*868 net64
*869 net640
*870 net641
*871 net642
*872 net643
*873 net644
*874 net645
*875 net646
*876 net647
*877 net648
*878 net649
*879 net65
*880 net650
*881 net651
*882 net652
*883 net653
*884 net654
*885 net655
*886 net656
*887 net657
*888 net658
*889 net659
*890 net66
*891 net660
*892 net661
*893 net662
*894 net663
*895 net664
*896 net665
*897 net666
*898 net667
*899 net668
*900 net669
*901 net67
*902 net670
*903 net671
*904 net672
*905 net673
*906 net674
*907 net675
*908 net676
*909 net677
*910 net678
*911 net679
*912 net68
*913 net680
*914 net681
*915 net682
*916 net683
*917 net684
*918 net685
*919 net686
*920 net687
*921 net688
*922 net689
*923 net69
*924 net690
*925 net691
*926 net692
*927 net693
*928 net694
*929 net695
*930 net696
*931 net697
*932 net698
*933 net699
*934 net7
*935 net70
*936 net700
*937 net701
*938 net702
*939 net703
*940 net704
*941 net705
*942 net706
*943 net707
*944 net708
*945 net709
*946 net71
*947 net710
*948 net711
*949 net712
*950 net713
*951 net714
*952 net715
*953 net716
*954 net717
*955 net718
*956 net719
*957 net72
*958 net720
*959 net721
*960 net722
*961 net723
*962 net724
*963 net725
*964 net726
*965 net727
*966 net728
*967 net729
*968 net73
*969 net730
*970 net731
*971 net732
*972 net733
*973 net734
*974 net735
*975 net736
*976 net737
*977 net738
*978 net739
*979 net74
*980 net740
*981 net741
*982 net742
*983 net743
*984 net744
*985 net745
*986 net746
*987 net747
*988 net748
*989 net749
*990 net75
*991 net750
*992 net751
*993 net752
*994 net753
*995 net754
*996 net755
*997 net756
*998 net757
*999 net758
*1000 net759
*1001 net76
*1002 net760
*1003 net761
*1004 net762
*1005 net763
*1006 net764
*1007 net765
*1008 net766
*1009 net767
*1010 net768
*1011 net769
*1012 net77
*1013 net770
*1014 net771
*1015 net772
*1016 net773
*1017 net774
*1018 net775
*1019 net776
*1020 net777
*1021 net778
*1022 net779
*1023 net78
*1024 net780
*1025 net781
*1026 net782
*1027 net783
*1028 net784
*1029 net785
*1030 net786
*1031 net787
*1032 net788
*1033 net789
*1034 net79
*1035 net790
*1036 net791
*1037 net792
*1038 net793
*1039 net794
*1040 net795
*1041 net796
*1042 net797
*1043 net798
*1044 net799
*1045 net8
*1046 net80
*1047 net800
*1048 net801
*1049 net802
*1050 net803
*1051 net804
*1052 net805
*1053 net806
*1054 net807
*1055 net808
*1056 net809
*1057 net81
*1058 net810
*1059 net811
*1060 net812
*1061 net813
*1062 net814
*1063 net815
*1064 net816
*1065 net817
*1066 net818
*1067 net819
*1068 net82
*1069 net820
*1070 net821
*1071 net822
*1072 net823
*1073 net824
*1074 net825
*1075 net826
*1076 net827
*1077 net828
*1078 net829
*1079 net83
*1080 net830
*1081 net831
*1082 net832
*1083 net833
*1084 net834
*1085 net835
*1086 net836
*1087 net837
*1088 net838
*1089 net839
*1090 net84
*1091 net840
*1092 net841
*1093 net842
*1094 net843
*1095 net844
*1096 net845
*1097 net846
*1098 net847
*1099 net848
*1100 net849
*1101 net85
*1102 net850
*1103 net851
*1104 net852
*1105 net853
*1106 net854
*1107 net855
*1108 net856
*1109 net857
*1110 net858
*1111 net859
*1112 net86
*1113 net860
*1114 net861
*1115 net862
*1116 net863
*1117 net864
*1118 net865
*1119 net866
*1120 net867
*1121 net868
*1122 net869
*1123 net87
*1124 net870
*1125 net871
*1126 net872
*1127 net873
*1128 net874
*1129 net875
*1130 net876
*1131 net877
*1132 net878
*1133 net879
*1134 net88
*1135 net880
*1136 net881
*1137 net882
*1138 net883
*1139 net884
*1140 net885
*1141 net886
*1142 net887
*1143 net888
*1144 net889
*1145 net89
*1146 net890
*1147 net891
*1148 net892
*1149 net893
*1150 net894
*1151 net895
*1152 net896
*1153 net897
*1154 net898
*1155 net899
*1156 net9
*1157 net90
*1158 net900
*1159 net901
*1160 net902
*1161 net903
*1162 net904
*1163 net905
*1164 net906
*1165 net907
*1166 net908
*1167 net909
*1168 net91
*1169 net910
*1170 net911
*1171 net912
*1172 net913
*1173 net914
*1174 net915
*1175 net916
*1176 net917
*1177 net918
*1178 net919
*1179 net92
*1180 net920
*1181 net921
*1182 net922
*1183 net923
*1184 net924
*1185 net925
*1186 net926
*1187 net927
*1188 net928
*1189 net929
*1190 net93
*1191 net930
*1192 net931
*1193 net932
*1194 net933
*1195 net934
*1196 net935
*1197 net936
*1198 net937
*1199 net938
*1200 net939
*1201 net94
*1202 net940
*1203 net941
*1204 net942
*1205 net943
*1206 net944
*1207 net945
*1208 net946
*1209 net947
*1210 net948
*1211 net949
*1212 net95
*1213 net950
*1214 net951
*1215 net952
*1216 net953
*1217 net954
*1218 net955
*1219 net956
*1220 net957
*1221 net958
*1222 net959
*1223 net96
*1224 net960
*1225 net961
*1226 net962
*1227 net963
*1228 net964
*1229 net965
*1230 net966
*1231 net967
*1232 net968
*1233 net969
*1234 net97
*1235 net970
*1236 net971
*1237 net972
*1238 net973
*1239 net974
*1240 net975
*1241 net976
*1242 net977
*1243 net978
*1244 net979
*1245 net98
*1246 net980
*1247 net981
*1248 net982
*1249 net983
*1250 net984
*1251 net985
*1252 net986
*1253 net987
*1254 net988
*1255 net989
*1256 net99
*1257 net990
*1258 net991
*1259 net992
*1260 net993
*1261 net994
*1262 net995
*1263 net996
*1264 net997
*1265 net998
*1266 net999
*1267 ANTENNA_1
*1268 ANTENNA_2
*1269 ANTENNA_3
*1270 ANTENNA_4
*1271 ANTENNA_5
*1272 ANTENNA_c100_B
*1273 ANTENNA_c101_B
*1274 ANTENNA_c102_B
*1275 ANTENNA_c102_C
*1276 ANTENNA_c105_A0
*1277 ANTENNA_c105_S0
*1278 ANTENNA_c108_C
*1279 ANTENNA_c108_X
*1280 ANTENNA_c109_A2
*1281 ANTENNA_c109_D1
*1282 ANTENNA_c109_X
*1283 ANTENNA_c112_B
*1284 ANTENNA_c115_B
*1285 ANTENNA_c117_A
*1286 ANTENNA_c121_C
*1287 ANTENNA_c124_A
*1288 ANTENNA_c124_C_N
*1289 ANTENNA_c126_B
*1290 ANTENNA_c129_B
*1291 ANTENNA_c131_A1
*1292 ANTENNA_c132_A
*1293 ANTENNA_c132_B
*1294 ANTENNA_c133_A
*1295 ANTENNA_c133_B
*1296 ANTENNA_c133_C
*1297 ANTENNA_c133_X
*1298 ANTENNA_c134_A
*1299 ANTENNA_c134_B
*1300 ANTENNA_c134_X
*1301 ANTENNA_c135_A_N
*1302 ANTENNA_c135_B
*1303 ANTENNA_c135_Y
*1304 ANTENNA_c136_A
*1305 ANTENNA_c136_B
*1306 ANTENNA_c136_Y
*1307 ANTENNA_c137_A
*1308 ANTENNA_c137_B_N
*1309 ANTENNA_c137_Y
*1310 ANTENNA_c138_A_N
*1311 ANTENNA_c138_B
*1312 ANTENNA_c138_C
*1313 ANTENNA_c138_Y
*1314 ANTENNA_c139_B
*1315 ANTENNA_c140_A
*1316 ANTENNA_c140_B
*1317 ANTENNA_c141_A
*1318 ANTENNA_c141_X
*1319 ANTENNA_c142_A
*1320 ANTENNA_c142_B
*1321 ANTENNA_c143_A0
*1322 ANTENNA_c143_A1
*1323 ANTENNA_c143_A2
*1324 ANTENNA_c143_S0
*1325 ANTENNA_c143_X
*1326 ANTENNA_c144_A
*1327 ANTENNA_c144_B
*1328 ANTENNA_c144_Y
*1329 ANTENNA_c145_B
*1330 ANTENNA_c145_C_N
*1331 ANTENNA_c146_A
*1332 ANTENNA_c146_B_N
*1333 ANTENNA_c147_B
*1334 ANTENNA_c147_X
*1335 ANTENNA_c149_A
*1336 ANTENNA_c149_Y
*1337 ANTENNA_c150_A
*1338 ANTENNA_c150_X
*1339 ANTENNA_c151_X
*1340 ANTENNA_c152_A2
*1341 ANTENNA_c152_A3
*1342 ANTENNA_c152_S0
*1343 ANTENNA_c152_X
*1344 ANTENNA_c153_A_N
*1345 ANTENNA_c153_B
*1346 ANTENNA_c153_X
*1347 ANTENNA_c154_B
*1348 ANTENNA_c154_X
*1349 ANTENNA_c155_A
*1350 ANTENNA_c155_Y
*1351 ANTENNA_c156_B
*1352 ANTENNA_c156_C_N
*1353 ANTENNA_c156_D_N
*1354 ANTENNA_c156_X
*1355 ANTENNA_c157_A
*1356 ANTENNA_c157_B
*1357 ANTENNA_c157_X
*1358 ANTENNA_c158_A
*1359 ANTENNA_c158_B
*1360 ANTENNA_c158_C_N
*1361 ANTENNA_c158_D_N
*1362 ANTENNA_c158_X
*1363 ANTENNA_c159_B
*1364 ANTENNA_c160_A
*1365 ANTENNA_c160_B_N
*1366 ANTENNA_c160_X
*1367 ANTENNA_c161_A_N
*1368 ANTENNA_c161_B
*1369 ANTENNA_c161_Y
*1370 ANTENNA_c162_A
*1371 ANTENNA_c162_B
*1372 ANTENNA_c162_X
*1373 ANTENNA_c163_A_N
*1374 ANTENNA_c163_B
*1375 ANTENNA_c163_Y
*1376 ANTENNA_c164_A
*1377 ANTENNA_c164_B
*1378 ANTENNA_c164_Y
*1379 ANTENNA_c165_X
*1380 ANTENNA_c166_A_N
*1381 ANTENNA_c166_X
*1382 ANTENNA_c167_A
*1383 ANTENNA_c167_B
*1384 ANTENNA_c167_C
*1385 ANTENNA_c167_X
*1386 ANTENNA_c168_A
*1387 ANTENNA_c168_B
*1388 ANTENNA_c168_C_N
*1389 ANTENNA_c168_D_N
*1390 ANTENNA_c168_X
*1391 ANTENNA_c169_A_N
*1392 ANTENNA_c169_B
*1393 ANTENNA_c169_Y
*1394 ANTENNA_c170_A1
*1395 ANTENNA_c170_B1
*1396 ANTENNA_c170_C1
*1397 ANTENNA_c170_D1
*1398 ANTENNA_c170_X
*1399 ANTENNA_c171_A
*1400 ANTENNA_c171_B_N
*1401 ANTENNA_c172_A0
*1402 ANTENNA_c172_A1
*1403 ANTENNA_c172_A2
*1404 ANTENNA_c172_A3
*1405 ANTENNA_c172_S0
*1406 ANTENNA_c173_A0
*1407 ANTENNA_c173_A1
*1408 ANTENNA_c173_S0
*1409 ANTENNA_c174_A0
*1410 ANTENNA_c174_A1
*1411 ANTENNA_c174_S0
*1412 ANTENNA_c174_S1
*1413 ANTENNA_c175_A2
*1414 ANTENNA_c175_B1
*1415 ANTENNA_c175_C1
*1416 ANTENNA_c176_X
*1417 ANTENNA_c177_A
*1418 ANTENNA_c177_B
*1419 ANTENNA_c177_C
*1420 ANTENNA_c178_A
*1421 ANTENNA_c178_B
*1422 ANTENNA_c179_B
*1423 ANTENNA_c179_C
*1424 ANTENNA_c179_X
*1425 ANTENNA_c180_A
*1426 ANTENNA_c180_Y
*1427 ANTENNA_c181_A
*1428 ANTENNA_c181_B
*1429 ANTENNA_c181_C
*1430 ANTENNA_c181_Y
*1431 ANTENNA_c182_A
*1432 ANTENNA_c182_C
*1433 ANTENNA_c183_A
*1434 ANTENNA_c183_B
*1435 ANTENNA_c183_C_N
*1436 ANTENNA_c183_X
*1437 ANTENNA_c184_A
*1438 ANTENNA_c184_B
*1439 ANTENNA_c184_C
*1440 ANTENNA_c185_B
*1441 ANTENNA_c186_B
*1442 ANTENNA_c186_C_N
*1443 ANTENNA_c186_Y
*1444 ANTENNA_c187_B
*1445 ANTENNA_c187_C
*1446 ANTENNA_c188_A_N
*1447 ANTENNA_c188_C
*1448 ANTENNA_c189_A0
*1449 ANTENNA_c189_A2
*1450 ANTENNA_c189_A3
*1451 ANTENNA_c189_S0
*1452 ANTENNA_c189_S1
*1453 ANTENNA_c189_X
*1454 ANTENNA_c190_C_N
*1455 ANTENNA_c190_X
*1456 ANTENNA_c191_A
*1457 ANTENNA_c191_C
*1458 ANTENNA_c191_Y
*1459 ANTENNA_c192_A
*1460 ANTENNA_c192_B
*1461 ANTENNA_c192_C
*1462 ANTENNA_c193_C
*1463 ANTENNA_c194_B
*1464 ANTENNA_c194_C_N
*1465 ANTENNA_c194_D_N
*1466 ANTENNA_c194_X
*1467 ANTENNA_c195_Y
*1468 ANTENNA_c196_Y
*1469 ANTENNA_c197_A0
*1470 ANTENNA_c197_A1
*1471 ANTENNA_c197_A3
*1472 ANTENNA_c197_S0
*1473 ANTENNA_c197_X
*1474 ANTENNA_c198_A_N
*1475 ANTENNA_c198_B
*1476 ANTENNA_c199_A_N
*1477 ANTENNA_c199_B
*1478 ANTENNA_c200_Y
*1479 ANTENNA_c201_A
*1480 ANTENNA_c201_B
*1481 ANTENNA_c201_C
*1482 ANTENNA_c202_A
*1483 ANTENNA_c202_B
*1484 ANTENNA_c202_C
*1485 ANTENNA_c202_X
*1486 ANTENNA_c204_X
*1487 ANTENNA_c205_A2
*1488 ANTENNA_c205_B1
*1489 ANTENNA_c205_C1
*1490 ANTENNA_c205_D1
*1491 ANTENNA_c206_C_N
*1492 ANTENNA_c207_B
*1493 ANTENNA_c208_A0
*1494 ANTENNA_c208_A1
*1495 ANTENNA_c208_A2
*1496 ANTENNA_c208_A3
*1497 ANTENNA_c208_S0
*1498 ANTENNA_c209_A
*1499 ANTENNA_c209_B
*1500 ANTENNA_c210_A
*1501 ANTENNA_c210_C_N
*1502 ANTENNA_c211_X
*1503 ANTENNA_c212_A_N
*1504 ANTENNA_c212_B
*1505 ANTENNA_c212_Y
*1506 ANTENNA_c213_B
*1507 ANTENNA_c213_C
*1508 ANTENNA_c214_A0
*1509 ANTENNA_c214_A1
*1510 ANTENNA_c214_A3
*1511 ANTENNA_c214_S0
*1512 ANTENNA_c214_S1
*1513 ANTENNA_c214_X
*1514 ANTENNA_c215_CLK_N
*1515 ANTENNA_c215_Q
*1516 ANTENNA_c215_SCD
*1517 ANTENNA_c215_SCE
*1518 ANTENNA_c215_SET_B
*1519 ANTENNA_c216_CLK_N
*1520 ANTENNA_c216_D
*1521 ANTENNA_c216_SCE
*1522 ANTENNA_c217_CLK
*1523 ANTENNA_c217_RESET_B
*1524 ANTENNA_c217_SCD
*1525 ANTENNA_c217_SCE
*1526 ANTENNA_c217_SET_B
*1527 ANTENNA_c218_SCD
*1528 ANTENNA_c218_SCE
*1529 ANTENNA_c218_SET_B
*1530 ANTENNA_c219_CLK_N
*1531 ANTENNA_c219_Q
*1532 ANTENNA_c219_Q_N
*1533 ANTENNA_c219_RESET_B
*1534 ANTENNA_c219_SCE
*1535 ANTENNA_c219_SET_B
*1536 ANTENNA_c220_A
*1537 ANTENNA_c220_C
*1538 ANTENNA_c221_B
*1539 ANTENNA_c221_C
*1540 ANTENNA_c222_B
*1541 ANTENNA_c222_C
*1542 ANTENNA_c222_Y
*1543 ANTENNA_c223_B
*1544 ANTENNA_c224_A
*1545 ANTENNA_c225_A1
*1546 ANTENNA_c225_C1
*1547 ANTENNA_c225_D1
*1548 ANTENNA_c226_B
*1549 ANTENNA_c227_C
*1550 ANTENNA_c227_X
*1551 ANTENNA_c228_B
*1552 ANTENNA_c229_B
*1553 ANTENNA_c229_X
*1554 ANTENNA_c230_B
*1555 ANTENNA_c230_X
*1556 ANTENNA_c231_B
*1557 ANTENNA_c233_A1
*1558 ANTENNA_c233_B1
*1559 ANTENNA_c233_C1
*1560 ANTENNA_c233_D1
*1561 ANTENNA_c234_A2
*1562 ANTENNA_c234_B1
*1563 ANTENNA_c234_C1
*1564 ANTENNA_c235_A2
*1565 ANTENNA_c235_A3
*1566 ANTENNA_c236_Y
*1567 ANTENNA_c237_X
*1568 ANTENNA_c238_B
*1569 ANTENNA_c238_C
*1570 ANTENNA_c239_A2
*1571 ANTENNA_c239_B1
*1572 ANTENNA_c239_C1
*1573 ANTENNA_c239_D1
*1574 ANTENNA_c240_A0
*1575 ANTENNA_c240_A3
*1576 ANTENNA_c240_S0
*1577 ANTENNA_c240_X
*1578 ANTENNA_c241_A0
*1579 ANTENNA_c241_A2
*1580 ANTENNA_c241_A3
*1581 ANTENNA_c243_A_N
*1582 ANTENNA_c243_B
*1583 ANTENNA_c243_C
*1584 ANTENNA_c244_B
*1585 ANTENNA_c245_A1
*1586 ANTENNA_c245_A2
*1587 ANTENNA_c245_A3
*1588 ANTENNA_c245_S0
*1589 ANTENNA_c245_S1
*1590 ANTENNA_c246_A
*1591 ANTENNA_c246_B
*1592 ANTENNA_c246_C
*1593 ANTENNA_c247_A
*1594 ANTENNA_c247_B
*1595 ANTENNA_c249_C_N
*1596 ANTENNA_c250_A2
*1597 ANTENNA_c250_S1
*1598 ANTENNA_c252_A1
*1599 ANTENNA_c252_C1
*1600 ANTENNA_c254_A0
*1601 ANTENNA_c255_A_N
*1602 ANTENNA_c255_C
*1603 ANTENNA_c256_C1
*1604 ANTENNA_c256_D1
*1605 ANTENNA_c260_B
*1606 ANTENNA_c260_C
*1607 ANTENNA_c261_B
*1608 ANTENNA_c261_C_N
*1609 ANTENNA_c262_A1
*1610 ANTENNA_c262_A2
*1611 ANTENNA_c264_A_N
*1612 ANTENNA_c264_B
*1613 ANTENNA_c264_X
*1614 ANTENNA_c265_A_N
*1615 ANTENNA_c265_B
*1616 ANTENNA_c266_B
*1617 ANTENNA_c266_C
*1618 ANTENNA_c267_A
*1619 ANTENNA_c267_X
*1620 ANTENNA_c268_A
*1621 ANTENNA_c268_B
*1622 ANTENNA_c268_Y
*1623 ANTENNA_c269_A_N
*1624 ANTENNA_c269_B
*1625 ANTENNA_c269_X
*1626 ANTENNA_c270_A
*1627 ANTENNA_c270_X
*1628 ANTENNA_c271_A
*1629 ANTENNA_c271_B
*1630 ANTENNA_c271_C_N
*1631 ANTENNA_c271_D_N
*1632 ANTENNA_c271_X
*1633 ANTENNA_c273_A_N
*1634 ANTENNA_c273_B
*1635 ANTENNA_c273_Y
*1636 ANTENNA_c274_A
*1637 ANTENNA_c274_X
*1638 ANTENNA_c275_B
*1639 ANTENNA_c275_X
*1640 ANTENNA_c276_A
*1641 ANTENNA_c276_Y
*1642 ANTENNA_c278_B
*1643 ANTENNA_c278_C_N
*1644 ANTENNA_c279_A_N
*1645 ANTENNA_c280_A0
*1646 ANTENNA_c280_A1
*1647 ANTENNA_c280_A2
*1648 ANTENNA_c280_A3
*1649 ANTENNA_c280_S0
*1650 ANTENNA_c280_X
*1651 ANTENNA_c281_A
*1652 ANTENNA_c281_B
*1653 ANTENNA_c282_A1
*1654 ANTENNA_c282_A2
*1655 ANTENNA_c282_B1
*1656 ANTENNA_c282_C1
*1657 ANTENNA_c283_A0
*1658 ANTENNA_c283_A2
*1659 ANTENNA_c284_A0
*1660 ANTENNA_c284_A3
*1661 ANTENNA_c284_S1
*1662 ANTENNA_c284_X
*1663 ANTENNA_c285_A1
*1664 ANTENNA_c285_A3
*1665 ANTENNA_c285_S0
*1666 ANTENNA_c285_S1
*1667 ANTENNA_c285_X
*1668 ANTENNA_c286_B
*1669 ANTENNA_c286_D_N
*1670 ANTENNA_c286_X
*1671 ANTENNA_c287_A
*1672 ANTENNA_c287_B
*1673 ANTENNA_c288_B
*1674 ANTENNA_c289_Y
*1675 ANTENNA_c290_A
*1676 ANTENNA_c290_B
*1677 ANTENNA_c290_C_N
*1678 ANTENNA_c290_X
*1679 ANTENNA_c291_C_N
*1680 ANTENNA_c291_D_N
*1681 ANTENNA_c292_C
*1682 ANTENNA_c292_Y
*1683 ANTENNA_c293_B_N
*1684 ANTENNA_c293_X
*1685 ANTENNA_c294_A
*1686 ANTENNA_c294_C_N
*1687 ANTENNA_c294_D_N
*1688 ANTENNA_c295_A
*1689 ANTENNA_c295_B_N
*1690 ANTENNA_c296_CLK
*1691 ANTENNA_c296_D
*1692 ANTENNA_c296_Q
*1693 ANTENNA_c296_SCD
*1694 ANTENNA_c296_SCE
*1695 ANTENNA_c296_SET_B
*1696 ANTENNA_c297_A
*1697 ANTENNA_c297_B_N
*1698 ANTENNA_c297_Y
*1699 ANTENNA_c298_B
*1700 ANTENNA_c298_D_N
*1701 ANTENNA_c299_A
*1702 ANTENNA_c300_A2
*1703 ANTENNA_c300_B1
*1704 ANTENNA_c300_C1
*1705 ANTENNA_c300_D1
*1706 ANTENNA_c300_X
*1707 ANTENNA_c301_A1
*1708 ANTENNA_c301_A2
*1709 ANTENNA_c301_C1
*1710 ANTENNA_c301_D1
*1711 ANTENNA_c302_B
*1712 ANTENNA_c302_X
*1713 ANTENNA_c303_A
*1714 ANTENNA_c304_A1
*1715 ANTENNA_c304_S0
*1716 ANTENNA_c304_S1
*1717 ANTENNA_c305_X
*1718 ANTENNA_c306_A
*1719 ANTENNA_c307_A1
*1720 ANTENNA_c307_A2
*1721 ANTENNA_c307_A3
*1722 ANTENNA_c307_S1
*1723 ANTENNA_c308_A
*1724 ANTENNA_c308_B
*1725 ANTENNA_c309_CLK
*1726 ANTENNA_c309_SCD
*1727 ANTENNA_c310_Y
*1728 ANTENNA_c311_A
*1729 ANTENNA_c312_A_N
*1730 ANTENNA_c313_A
*1731 ANTENNA_c313_B
*1732 ANTENNA_c315_B
*1733 ANTENNA_c315_C_N
*1734 ANTENNA_c316_C
*1735 ANTENNA_c317_B
*1736 ANTENNA_c317_C_N
*1737 ANTENNA_c317_D_N
*1738 ANTENNA_c318_A1
*1739 ANTENNA_c318_A2
*1740 ANTENNA_c318_B1
*1741 ANTENNA_c318_D1
*1742 ANTENNA_c319_A
*1743 ANTENNA_c319_D_N
*1744 ANTENNA_c320_A
*1745 ANTENNA_c320_Y
*1746 ANTENNA_c321_CLK
*1747 ANTENNA_c321_Q
*1748 ANTENNA_c321_SCD
*1749 ANTENNA_c322_1_A
*1750 ANTENNA_c323_CLK_N
*1751 ANTENNA_c323_D
*1752 ANTENNA_c323_RESET_B
*1753 ANTENNA_c323_SCD
*1754 ANTENNA_c324_D_N
*1755 ANTENNA_c325_A3
*1756 ANTENNA_c326_A1
*1757 ANTENNA_c326_A2
*1758 ANTENNA_c326_S0
*1759 ANTENNA_c327_C1
*1760 ANTENNA_c328_CLK_N
*1761 ANTENNA_c328_Q
*1762 ANTENNA_c328_Q_N
*1763 ANTENNA_c329_A2
*1764 ANTENNA_c329_B1
*1765 ANTENNA_c329_C1
*1766 ANTENNA_c330_X
*1767 ANTENNA_c331_D_N
*1768 ANTENNA_c332_A1
*1769 ANTENNA_c332_A2
*1770 ANTENNA_c332_C1
*1771 ANTENNA_c332_D1
*1772 ANTENNA_c333_A
*1773 ANTENNA_c333_B
*1774 ANTENNA_c333_C_N
*1775 ANTENNA_c333_D_N
*1776 ANTENNA_c334_A0
*1777 ANTENNA_c334_A1
*1778 ANTENNA_c334_A2
*1779 ANTENNA_c334_A3
*1780 ANTENNA_c334_S0
*1781 ANTENNA_c335_B
*1782 ANTENNA_c335_C
*1783 ANTENNA_c337_A
*1784 ANTENNA_c337_B
*1785 ANTENNA_c338_B
*1786 ANTENNA_c338_C
*1787 ANTENNA_c339_C
*1788 ANTENNA_c339_X
*1789 ANTENNA_c340_C
*1790 ANTENNA_c340_X
*1791 ANTENNA_c341_A0
*1792 ANTENNA_c341_A1
*1793 ANTENNA_c341_A3
*1794 ANTENNA_c341_S1
*1795 ANTENNA_c342_B
*1796 ANTENNA_c342_C_N
*1797 ANTENNA_c342_X
*1798 ANTENNA_c343_B
*1799 ANTENNA_c343_C
*1800 ANTENNA_c343_Y
*1801 ANTENNA_c344_A1
*1802 ANTENNA_c344_A2
*1803 ANTENNA_c344_B1
*1804 ANTENNA_c345_B
*1805 ANTENNA_c345_C_N
*1806 ANTENNA_c345_D_N
*1807 ANTENNA_c346_A1
*1808 ANTENNA_c346_A2
*1809 ANTENNA_c346_A3
*1810 ANTENNA_c346_S0
*1811 ANTENNA_c346_S1
*1812 ANTENNA_c347_A
*1813 ANTENNA_c347_B
*1814 ANTENNA_c347_C_N
*1815 ANTENNA_c348_A1
*1816 ANTENNA_c348_A2
*1817 ANTENNA_c348_B1
*1818 ANTENNA_c348_C1
*1819 ANTENNA_c349_CLK_N
*1820 ANTENNA_c349_SCE
*1821 ANTENNA_c350_CLK
*1822 ANTENNA_c350_RESET_B
*1823 ANTENNA_c351_B1
*1824 ANTENNA_c351_C1
*1825 ANTENNA_c352_A1
*1826 ANTENNA_c352_A2
*1827 ANTENNA_c352_B1
*1828 ANTENNA_c352_C1
*1829 ANTENNA_c352_D1
*1830 ANTENNA_c354_B
*1831 ANTENNA_c354_C_N
*1832 ANTENNA_c354_D_N
*1833 ANTENNA_c355_A
*1834 ANTENNA_c355_B
*1835 ANTENNA_c355_C
*1836 ANTENNA_c356_B
*1837 ANTENNA_c356_C
*1838 ANTENNA_c357_A
*1839 ANTENNA_c358_A
*1840 ANTENNA_c358_B
*1841 ANTENNA_c358_C_N
*1842 ANTENNA_c359_A1
*1843 ANTENNA_c359_A2
*1844 ANTENNA_c359_B1
*1845 ANTENNA_c359_C1
*1846 ANTENNA_c360_B
*1847 ANTENNA_c360_C_N
*1848 ANTENNA_c360_D_N
*1849 ANTENNA_c361_B
*1850 ANTENNA_c361_C_N
*1851 ANTENNA_c362_C
*1852 ANTENNA_c363_A
*1853 ANTENNA_c364_A1
*1854 ANTENNA_c364_A2
*1855 ANTENNA_c364_X
*1856 ANTENNA_c365_A3
*1857 ANTENNA_c365_S0
*1858 ANTENNA_c365_S1
*1859 ANTENNA_c366_SCD
*1860 ANTENNA_c367_B
*1861 ANTENNA_c368_A2
*1862 ANTENNA_c369_A
*1863 ANTENNA_c369_B
*1864 ANTENNA_c371_D_N
*1865 ANTENNA_c372_B
*1866 ANTENNA_c373_SCD
*1867 ANTENNA_c392_A0