* NGSPICE file created from netlist_2.ext - technology: sky130A

* Black-box entry subcircuit for sky130_fd_sc_hd__decap_6 abstract view
.subckt sky130_fd_sc_hd__decap_6 VGND VNB VPB VPWR
.ends

* Black-box entry subcircuit for sky130_fd_sc_hd__fill_1 abstract view
.subckt sky130_fd_sc_hd__fill_1 VGND VNB VPB VPWR
.ends

* Black-box entry subcircuit for sky130_fd_sc_hd__clkbuf_16 abstract view
.subckt sky130_fd_sc_hd__clkbuf_16 A VGND VNB VPB VPWR X
.ends

* Black-box entry subcircuit for sky130_fd_sc_hd__fill_2 abstract view
.subckt sky130_fd_sc_hd__fill_2 VGND VNB VPB VPWR
.ends

* Black-box entry subcircuit for sky130_fd_sc_hd__diode_2 abstract view
.subckt sky130_fd_sc_hd__diode_2 DIODE VGND VNB VPB VPWR
.ends

* Black-box entry subcircuit for sky130_fd_sc_hd__decap_4 abstract view
.subckt sky130_fd_sc_hd__decap_4 VGND VNB VPB VPWR
.ends

* Black-box entry subcircuit for sky130_ef_sc_hd__decap_12 abstract view
.subckt sky130_ef_sc_hd__decap_12 VPWR VGND VPB VNB
.ends

* Black-box entry subcircuit for sky130_fd_sc_hd__clkbuf_1 abstract view
.subckt sky130_fd_sc_hd__clkbuf_1 A VGND VNB VPB VPWR X
.ends

* Black-box entry subcircuit for sky130_fd_sc_hd__a41o_2 abstract view
.subckt sky130_fd_sc_hd__a41o_2 A1 A2 A3 A4 B1 VGND VNB VPB VPWR X
.ends

* Black-box entry subcircuit for sky130_fd_sc_hd__mux4_4 abstract view
.subckt sky130_fd_sc_hd__mux4_4 A0 A1 A2 A3 S0 S1 VGND VNB VPB VPWR X
.ends

* Black-box entry subcircuit for sky130_fd_sc_hd__o21ai_2 abstract view
.subckt sky130_fd_sc_hd__o21ai_2 A1 A2 B1 VGND VNB VPB VPWR Y
.ends

* Black-box entry subcircuit for sky130_fd_sc_hd__inv_12 abstract view
.subckt sky130_fd_sc_hd__inv_12 A VGND VNB VPB VPWR Y
.ends

* Black-box entry subcircuit for sky130_fd_sc_hd__mux4_1 abstract view
.subckt sky130_fd_sc_hd__mux4_1 A0 A1 A2 A3 S0 S1 VGND VNB VPB VPWR X
.ends

* Black-box entry subcircuit for sky130_fd_sc_hd__a41oi_1 abstract view
.subckt sky130_fd_sc_hd__a41oi_1 A1 A2 A3 A4 B1 VGND VNB VPB VPWR Y
.ends

* Black-box entry subcircuit for sky130_fd_sc_hd__mux4_2 abstract view
.subckt sky130_fd_sc_hd__mux4_2 A0 A1 A2 A3 S0 S1 VGND VNB VPB VPWR X
.ends

* Black-box entry subcircuit for sky130_fd_sc_hd__xor2_4 abstract view
.subckt sky130_fd_sc_hd__xor2_4 A B VGND VNB VPB VPWR X
.ends

* Black-box entry subcircuit for sky130_fd_sc_hd__dfxbp_1 abstract view
.subckt sky130_fd_sc_hd__dfxbp_1 CLK D VGND VNB VPB VPWR Q Q_N
.ends

* Black-box entry subcircuit for sky130_fd_sc_hd__dlxtn_2 abstract view
.subckt sky130_fd_sc_hd__dlxtn_2 D GATE_N VGND VNB VPB VPWR Q
.ends

* Black-box entry subcircuit for sky130_fd_sc_hd__xor2_2 abstract view
.subckt sky130_fd_sc_hd__xor2_2 A B VGND VNB VPB VPWR X
.ends

* Black-box entry subcircuit for sky130_fd_sc_hd__xnor2_1 abstract view
.subckt sky130_fd_sc_hd__xnor2_1 A B VGND VNB VPB VPWR Y
.ends

* Black-box entry subcircuit for sky130_fd_sc_hd__dlxtn_1 abstract view
.subckt sky130_fd_sc_hd__dlxtn_1 D GATE_N VGND VNB VPB VPWR Q
.ends

* Black-box entry subcircuit for sky130_fd_sc_hd__dlclkp_2 abstract view
.subckt sky130_fd_sc_hd__dlclkp_2 CLK GATE VGND VNB VPB VPWR GCLK
.ends

* Black-box entry subcircuit for sky130_fd_sc_hd__tapvpwrvgnd_1 abstract view
.subckt sky130_fd_sc_hd__tapvpwrvgnd_1 VGND VPWR
.ends

* Black-box entry subcircuit for sky130_fd_sc_hd__dlclkp_4 abstract view
.subckt sky130_fd_sc_hd__dlclkp_4 CLK GATE VGND VNB VPB VPWR GCLK
.ends

* Black-box entry subcircuit for sky130_fd_sc_hd__dlygate4sd1_1 abstract view
.subckt sky130_fd_sc_hd__dlygate4sd1_1 A VGND VNB VPB VPWR X
.ends

* Black-box entry subcircuit for sky130_fd_sc_hd__clkbuf_4 abstract view
.subckt sky130_fd_sc_hd__clkbuf_4 A VGND VNB VPB VPWR X
.ends

* Black-box entry subcircuit for sky130_fd_sc_hd__buf_8 abstract view
.subckt sky130_fd_sc_hd__buf_8 A VGND VNB VPB VPWR X
.ends

* Black-box entry subcircuit for sky130_fd_sc_hd__decap_8 abstract view
.subckt sky130_fd_sc_hd__decap_8 VGND VNB VPB VPWR
.ends

* Black-box entry subcircuit for sky130_fd_sc_hd__decap_3 abstract view
.subckt sky130_fd_sc_hd__decap_3 VGND VNB VPB VPWR
.ends

* Black-box entry subcircuit for sky130_fd_sc_hd__xor2_1 abstract view
.subckt sky130_fd_sc_hd__xor2_1 A B VGND VNB VPB VPWR X
.ends

* Black-box entry subcircuit for sky130_fd_sc_hd__a41o_1 abstract view
.subckt sky130_fd_sc_hd__a41o_1 A1 A2 A3 A4 B1 VGND VNB VPB VPWR X
.ends

* Black-box entry subcircuit for sky130_fd_sc_hd__buf_1 abstract view
.subckt sky130_fd_sc_hd__buf_1 A VGND VNB VPB VPWR X
.ends

* Black-box entry subcircuit for sky130_fd_sc_hd__xnor2_4 abstract view
.subckt sky130_fd_sc_hd__xnor2_4 A B VGND VNB VPB VPWR Y
.ends

* Black-box entry subcircuit for sky130_fd_sc_hd__o21a_1 abstract view
.subckt sky130_fd_sc_hd__o21a_1 A1 A2 B1 VGND VNB VPB VPWR X
.ends

* Black-box entry subcircuit for sky130_fd_sc_hd__o21bai_2 abstract view
.subckt sky130_fd_sc_hd__o21bai_2 A1 A2 B1_N VGND VNB VPB VPWR Y
.ends

* Black-box entry subcircuit for sky130_fd_sc_hd__buf_6 abstract view
.subckt sky130_fd_sc_hd__buf_6 A VGND VNB VPB VPWR X
.ends

* Black-box entry subcircuit for sky130_fd_sc_hd__clkbuf_8 abstract view
.subckt sky130_fd_sc_hd__clkbuf_8 A VGND VNB VPB VPWR X
.ends

* Black-box entry subcircuit for sky130_fd_sc_hd__sdfbbn_1 abstract view
.subckt sky130_fd_sc_hd__sdfbbn_1 CLK_N D RESET_B SCD SCE SET_B VGND VNB VPB VPWR
+ Q Q_N
.ends

* Black-box entry subcircuit for sky130_fd_sc_hd__clkinv_4 abstract view
.subckt sky130_fd_sc_hd__clkinv_4 A VGND VNB VPB VPWR Y
.ends

* Black-box entry subcircuit for sky130_fd_sc_hd__inv_2 abstract view
.subckt sky130_fd_sc_hd__inv_2 A VGND VNB VPB VPWR Y
.ends

* Black-box entry subcircuit for sky130_fd_sc_hd__a21boi_4 abstract view
.subckt sky130_fd_sc_hd__a21boi_4 A1 A2 B1_N VGND VNB VPB VPWR Y
.ends

* Black-box entry subcircuit for sky130_fd_sc_hd__dlygate4sd3_1 abstract view
.subckt sky130_fd_sc_hd__dlygate4sd3_1 A VGND VNB VPB VPWR X
.ends

* Black-box entry subcircuit for sky130_fd_sc_hd__clkbuf_2 abstract view
.subckt sky130_fd_sc_hd__clkbuf_2 A VGND VNB VPB VPWR X
.ends

* Black-box entry subcircuit for sky130_fd_sc_hd__a31o_1 abstract view
.subckt sky130_fd_sc_hd__a31o_1 A1 A2 A3 B1 VGND VNB VPB VPWR X
.ends

* Black-box entry subcircuit for sky130_fd_sc_hd__dfstp_1 abstract view
.subckt sky130_fd_sc_hd__dfstp_1 CLK D SET_B VGND VNB VPB VPWR Q
.ends

* Black-box entry subcircuit for sky130_fd_sc_hd__dfrtp_2 abstract view
.subckt sky130_fd_sc_hd__dfrtp_2 CLK D RESET_B VGND VNB VPB VPWR Q
.ends

* Black-box entry subcircuit for sky130_fd_sc_hd__dlxtn_4 abstract view
.subckt sky130_fd_sc_hd__dlxtn_4 D GATE_N VGND VNB VPB VPWR Q
.ends

* Black-box entry subcircuit for sky130_fd_sc_hd__dfxtp_1 abstract view
.subckt sky130_fd_sc_hd__dfxtp_1 CLK D VGND VNB VPB VPWR Q
.ends

* Black-box entry subcircuit for sky130_fd_sc_hd__dlxbn_1 abstract view
.subckt sky130_fd_sc_hd__dlxbn_1 D GATE_N VGND VNB VPB VPWR Q Q_N
.ends

* Black-box entry subcircuit for sky130_fd_sc_hd__buf_4 abstract view
.subckt sky130_fd_sc_hd__buf_4 A VGND VNB VPB VPWR X
.ends

* Black-box entry subcircuit for sky130_fd_sc_hd__o21ba_4 abstract view
.subckt sky130_fd_sc_hd__o21ba_4 A1 A2 B1_N VGND VNB VPB VPWR X
.ends

* Black-box entry subcircuit for sky130_fd_sc_hd__sedfxtp_1 abstract view
.subckt sky130_fd_sc_hd__sedfxtp_1 CLK D DE SCD SCE VGND VNB VPB VPWR Q
.ends

* Black-box entry subcircuit for sky130_fd_sc_hd__buf_2 abstract view
.subckt sky130_fd_sc_hd__buf_2 A VGND VNB VPB VPWR X
.ends

* Black-box entry subcircuit for sky130_fd_sc_hd__sdfbbn_2 abstract view
.subckt sky130_fd_sc_hd__sdfbbn_2 CLK_N D RESET_B SCD SCE SET_B VGND VNB VPB VPWR
+ Q Q_N
.ends

* Black-box entry subcircuit for sky130_fd_sc_hd__o21bai_4 abstract view
.subckt sky130_fd_sc_hd__o21bai_4 A1 A2 B1_N VGND VNB VPB VPWR Y
.ends

* Black-box entry subcircuit for sky130_fd_sc_hd__a21bo_2 abstract view
.subckt sky130_fd_sc_hd__a21bo_2 A1 A2 B1_N VGND VNB VPB VPWR X
.ends

* Black-box entry subcircuit for sky130_fd_sc_hd__dfxtp_2 abstract view
.subckt sky130_fd_sc_hd__dfxtp_2 CLK D VGND VNB VPB VPWR Q
.ends

* Black-box entry subcircuit for sky130_fd_sc_hd__dlxtp_1 abstract view
.subckt sky130_fd_sc_hd__dlxtp_1 D GATE VGND VNB VPB VPWR Q
.ends

* Black-box entry subcircuit for sky130_fd_sc_hd__a21o_1 abstract view
.subckt sky130_fd_sc_hd__a21o_1 A1 A2 B1 VGND VNB VPB VPWR X
.ends

* Black-box entry subcircuit for sky130_fd_sc_hd__sdfbbp_1 abstract view
.subckt sky130_fd_sc_hd__sdfbbp_1 CLK D RESET_B SCD SCE SET_B VGND VNB VPB VPWR Q
+ Q_N
.ends

* Black-box entry subcircuit for sky130_fd_sc_hd__clkinv_2 abstract view
.subckt sky130_fd_sc_hd__clkinv_2 A VGND VNB VPB VPWR Y
.ends

* Black-box entry subcircuit for sky130_fd_sc_hd__a31oi_1 abstract view
.subckt sky130_fd_sc_hd__a31oi_1 A1 A2 A3 B1 VGND VNB VPB VPWR Y
.ends

* Black-box entry subcircuit for sky130_fd_sc_hd__a41oi_4 abstract view
.subckt sky130_fd_sc_hd__a41oi_4 A1 A2 A3 A4 B1 VGND VNB VPB VPWR Y
.ends

* Black-box entry subcircuit for sky130_fd_sc_hd__o21ba_1 abstract view
.subckt sky130_fd_sc_hd__o21ba_1 A1 A2 B1_N VGND VNB VPB VPWR X
.ends

* Black-box entry subcircuit for sky130_fd_sc_hd__dfrbp_1 abstract view
.subckt sky130_fd_sc_hd__dfrbp_1 CLK D RESET_B VGND VNB VPB VPWR Q Q_N
.ends

* Black-box entry subcircuit for sky130_fd_sc_hd__lpflow_inputisolatch_1 abstract view
.subckt sky130_fd_sc_hd__lpflow_inputisolatch_1 D SLEEP_B VGND VNB VPB VPWR Q
.ends

* Black-box entry subcircuit for sky130_fd_sc_hd__o21bai_1 abstract view
.subckt sky130_fd_sc_hd__o21bai_1 A1 A2 B1_N VGND VNB VPB VPWR Y
.ends

* Black-box entry subcircuit for sky130_fd_sc_hd__inv_6 abstract view
.subckt sky130_fd_sc_hd__inv_6 A VGND VNB VPB VPWR Y
.ends

* Black-box entry subcircuit for sky130_fd_sc_hd__a41oi_2 abstract view
.subckt sky130_fd_sc_hd__a41oi_2 A1 A2 A3 A4 B1 VGND VNB VPB VPWR Y
.ends

* Black-box entry subcircuit for sky130_fd_sc_hd__a21bo_4 abstract view
.subckt sky130_fd_sc_hd__a21bo_4 A1 A2 B1_N VGND VNB VPB VPWR X
.ends

* Black-box entry subcircuit for sky130_fd_sc_hd__o21ba_2 abstract view
.subckt sky130_fd_sc_hd__o21ba_2 A1 A2 B1_N VGND VNB VPB VPWR X
.ends

* Black-box entry subcircuit for sky130_fd_sc_hd__dlxbp_1 abstract view
.subckt sky130_fd_sc_hd__dlxbp_1 D GATE VGND VNB VPB VPWR Q Q_N
.ends

* Black-box entry subcircuit for sky130_fd_sc_hd__dlclkp_1 abstract view
.subckt sky130_fd_sc_hd__dlclkp_1 CLK GATE VGND VNB VPB VPWR GCLK
.ends

* Black-box entry subcircuit for sky130_fd_sc_hd__mux2_1 abstract view
.subckt sky130_fd_sc_hd__mux2_1 A0 A1 S VGND VNB VPB VPWR X
.ends

* Black-box entry subcircuit for sky130_fd_sc_hd__a21oi_2 abstract view
.subckt sky130_fd_sc_hd__a21oi_2 A1 A2 B1 VGND VNB VPB VPWR Y
.ends

* Black-box entry subcircuit for sky130_fd_sc_hd__a31oi_2 abstract view
.subckt sky130_fd_sc_hd__a31oi_2 A1 A2 A3 B1 VGND VNB VPB VPWR Y
.ends

* Black-box entry subcircuit for sky130_fd_sc_hd__inv_4 abstract view
.subckt sky130_fd_sc_hd__inv_4 A VGND VNB VPB VPWR Y
.ends

* Black-box entry subcircuit for sky130_fd_sc_hd__o21ai_1 abstract view
.subckt sky130_fd_sc_hd__o21ai_1 A1 A2 B1 VGND VNB VPB VPWR Y
.ends

* Black-box entry subcircuit for sky130_fd_sc_hd__sdfstp_2 abstract view
.subckt sky130_fd_sc_hd__sdfstp_2 CLK D SCD SCE SET_B VGND VNB VPB VPWR Q
.ends

* Black-box entry subcircuit for sky130_fd_sc_hd__a21boi_1 abstract view
.subckt sky130_fd_sc_hd__a21boi_1 A1 A2 B1_N VGND VNB VPB VPWR Y
.ends

* Black-box entry subcircuit for sky130_fd_sc_hd__xnor2_2 abstract view
.subckt sky130_fd_sc_hd__xnor2_2 A B VGND VNB VPB VPWR Y
.ends

* Black-box entry subcircuit for sky130_fd_sc_hd__dfxbp_2 abstract view
.subckt sky130_fd_sc_hd__dfxbp_2 CLK D VGND VNB VPB VPWR Q Q_N
.ends

* Black-box entry subcircuit for sky130_fd_sc_hd__inv_1 abstract view
.subckt sky130_fd_sc_hd__inv_1 A VGND VNB VPB VPWR Y
.ends

* Black-box entry subcircuit for sky130_fd_sc_hd__a31o_4 abstract view
.subckt sky130_fd_sc_hd__a31o_4 A1 A2 A3 B1 VGND VNB VPB VPWR X
.ends

* Black-box entry subcircuit for sky130_fd_sc_hd__o21a_4 abstract view
.subckt sky130_fd_sc_hd__o21a_4 A1 A2 B1 VGND VNB VPB VPWR X
.ends

* Black-box entry subcircuit for sky130_fd_sc_hd__mux2_2 abstract view
.subckt sky130_fd_sc_hd__mux2_2 A0 A1 S VGND VNB VPB VPWR X
.ends

* Black-box entry subcircuit for sky130_fd_sc_hd__a21boi_2 abstract view
.subckt sky130_fd_sc_hd__a21boi_2 A1 A2 B1_N VGND VNB VPB VPWR Y
.ends

* Black-box entry subcircuit for sky130_fd_sc_hd__clkinv_8 abstract view
.subckt sky130_fd_sc_hd__clkinv_8 A VGND VNB VPB VPWR Y
.ends

* Black-box entry subcircuit for sky130_fd_sc_hd__clkinv_1 abstract view
.subckt sky130_fd_sc_hd__clkinv_1 A VGND VNB VPB VPWR Y
.ends

* Black-box entry subcircuit for sky130_fd_sc_hd__sdfstp_4 abstract view
.subckt sky130_fd_sc_hd__sdfstp_4 CLK D SCD SCE SET_B VGND VNB VPB VPWR Q
.ends

* Black-box entry subcircuit for sky130_fd_sc_hd__sdfrtp_4 abstract view
.subckt sky130_fd_sc_hd__sdfrtp_4 CLK D RESET_B SCD SCE VGND VNB VPB VPWR Q
.ends

* Black-box entry subcircuit for sky130_fd_sc_hd__sdfsbp_1 abstract view
.subckt sky130_fd_sc_hd__sdfsbp_1 CLK D SCD SCE SET_B VGND VNB VPB VPWR Q Q_N
.ends

* Black-box entry subcircuit for sky130_fd_sc_hd__a31o_2 abstract view
.subckt sky130_fd_sc_hd__a31o_2 A1 A2 A3 B1 VGND VNB VPB VPWR X
.ends

* Black-box entry subcircuit for sky130_fd_sc_hd__mux2_8 abstract view
.subckt sky130_fd_sc_hd__mux2_8 A0 A1 S VGND VNB VPB VPWR X
.ends

* Black-box entry subcircuit for sky130_fd_sc_hd__edfxtp_1 abstract view
.subckt sky130_fd_sc_hd__edfxtp_1 CLK D DE VGND VNB VPB VPWR Q
.ends

* Black-box entry subcircuit for sky130_fd_sc_hd__sdfrbp_1 abstract view
.subckt sky130_fd_sc_hd__sdfrbp_1 CLK D RESET_B SCD SCE VGND VNB VPB VPWR Q Q_N
.ends

* Black-box entry subcircuit for sky130_fd_sc_hd__a41o_4 abstract view
.subckt sky130_fd_sc_hd__a41o_4 A1 A2 A3 A4 B1 VGND VNB VPB VPWR X
.ends

* Black-box entry subcircuit for sky130_fd_sc_hd__sdlclkp_1 abstract view
.subckt sky130_fd_sc_hd__sdlclkp_1 CLK GATE SCE VGND VNB VPB VPWR GCLK
.ends

* Black-box entry subcircuit for sky130_fd_sc_hd__dlrbn_1 abstract view
.subckt sky130_fd_sc_hd__dlrbn_1 D GATE_N RESET_B VGND VNB VPB VPWR Q Q_N
.ends

* Black-box entry subcircuit for sky130_fd_sc_hd__dfrtn_1 abstract view
.subckt sky130_fd_sc_hd__dfrtn_1 CLK_N D RESET_B VGND VNB VPB VPWR Q
.ends

* Black-box entry subcircuit for sky130_fd_sc_hd__dlrbp_2 abstract view
.subckt sky130_fd_sc_hd__dlrbp_2 D GATE RESET_B VGND VNB VPB VPWR Q Q_N
.ends

* Black-box entry subcircuit for sky130_fd_sc_hd__mux2_4 abstract view
.subckt sky130_fd_sc_hd__mux2_4 A0 A1 S VGND VNB VPB VPWR X
.ends

* Black-box entry subcircuit for sky130_fd_sc_hd__sdfrtn_1 abstract view
.subckt sky130_fd_sc_hd__sdfrtn_1 CLK_N D RESET_B SCD SCE VGND VNB VPB VPWR Q
.ends

* Black-box entry subcircuit for sky130_fd_sc_hd__dlrbp_1 abstract view
.subckt sky130_fd_sc_hd__dlrbp_1 D GATE RESET_B VGND VNB VPB VPWR Q Q_N
.ends

* Black-box entry subcircuit for sky130_fd_sc_hd__a21oi_1 abstract view
.subckt sky130_fd_sc_hd__a21oi_1 A1 A2 B1 VGND VNB VPB VPWR Y
.ends

* Black-box entry subcircuit for sky130_fd_sc_hd__dlymetal6s2s_1 abstract view
.subckt sky130_fd_sc_hd__dlymetal6s2s_1 A VGND VNB VPB VPWR X
.ends

* Black-box entry subcircuit for sky130_fd_sc_hd__a21boi_0 abstract view
.subckt sky130_fd_sc_hd__a21boi_0 A1 A2 B1_N VGND VNB VPB VPWR Y
.ends

* Black-box entry subcircuit for sky130_fd_sc_hd__buf_12 abstract view
.subckt sky130_fd_sc_hd__buf_12 A VGND VNB VPB VPWR X
.ends

* Black-box entry subcircuit for sky130_fd_sc_hd__edfxbp_1 abstract view
.subckt sky130_fd_sc_hd__edfxbp_1 CLK D DE VGND VNB VPB VPWR Q Q_N
.ends

* Black-box entry subcircuit for sky130_fd_sc_hd__dlrtn_1 abstract view
.subckt sky130_fd_sc_hd__dlrtn_1 D GATE_N RESET_B VGND VNB VPB VPWR Q
.ends

* Black-box entry subcircuit for sky130_fd_sc_hd__inv_8 abstract view
.subckt sky130_fd_sc_hd__inv_8 A VGND VNB VPB VPWR Y
.ends

* Black-box entry subcircuit for sky130_fd_sc_hd__a21o_2 abstract view
.subckt sky130_fd_sc_hd__a21o_2 A1 A2 B1 VGND VNB VPB VPWR X
.ends

* Black-box entry subcircuit for sky130_fd_sc_hd__o21ai_4 abstract view
.subckt sky130_fd_sc_hd__o21ai_4 A1 A2 B1 VGND VNB VPB VPWR Y
.ends

* Black-box entry subcircuit for sky130_fd_sc_hd__a21o_4 abstract view
.subckt sky130_fd_sc_hd__a21o_4 A1 A2 B1 VGND VNB VPB VPWR X
.ends

* Black-box entry subcircuit for sky130_fd_sc_hd__dfrtp_4 abstract view
.subckt sky130_fd_sc_hd__dfrtp_4 CLK D RESET_B VGND VNB VPB VPWR Q
.ends

* Black-box entry subcircuit for sky130_fd_sc_hd__sdfsbp_2 abstract view
.subckt sky130_fd_sc_hd__sdfsbp_2 CLK D SCD SCE SET_B VGND VNB VPB VPWR Q Q_N
.ends

* Black-box entry subcircuit for sky130_fd_sc_hd__dfsbp_2 abstract view
.subckt sky130_fd_sc_hd__dfsbp_2 CLK D SET_B VGND VNB VPB VPWR Q Q_N
.ends

* Black-box entry subcircuit for sky130_fd_sc_hd__o21a_2 abstract view
.subckt sky130_fd_sc_hd__o21a_2 A1 A2 B1 VGND VNB VPB VPWR X
.ends

* Black-box entry subcircuit for sky130_fd_sc_hd__a31oi_4 abstract view
.subckt sky130_fd_sc_hd__a31oi_4 A1 A2 A3 B1 VGND VNB VPB VPWR Y
.ends

* Black-box entry subcircuit for sky130_fd_sc_hd__dlrtp_2 abstract view
.subckt sky130_fd_sc_hd__dlrtp_2 D GATE RESET_B VGND VNB VPB VPWR Q
.ends

* Black-box entry subcircuit for sky130_fd_sc_hd__dlrtp_1 abstract view
.subckt sky130_fd_sc_hd__dlrtp_1 D GATE RESET_B VGND VNB VPB VPWR Q
.ends

* Black-box entry subcircuit for sky130_fd_sc_hd__sdlclkp_2 abstract view
.subckt sky130_fd_sc_hd__sdlclkp_2 CLK GATE SCE VGND VNB VPB VPWR GCLK
.ends

* Black-box entry subcircuit for sky130_fd_sc_hd__dfstp_2 abstract view
.subckt sky130_fd_sc_hd__dfstp_2 CLK D SET_B VGND VNB VPB VPWR Q
.ends

* Black-box entry subcircuit for sky130_fd_sc_hd__o21ai_0 abstract view
.subckt sky130_fd_sc_hd__o21ai_0 A1 A2 B1 VGND VNB VPB VPWR Y
.ends

* Black-box entry subcircuit for sky130_fd_sc_hd__dfstp_4 abstract view
.subckt sky130_fd_sc_hd__dfstp_4 CLK D SET_B VGND VNB VPB VPWR Q
.ends

* Black-box entry subcircuit for sky130_fd_sc_hd__sdlclkp_4 abstract view
.subckt sky130_fd_sc_hd__sdlclkp_4 CLK GATE SCE VGND VNB VPB VPWR GCLK
.ends

* Black-box entry subcircuit for sky130_fd_sc_hd__dfrbp_2 abstract view
.subckt sky130_fd_sc_hd__dfrbp_2 CLK D RESET_B VGND VNB VPB VPWR Q Q_N
.ends

* Black-box entry subcircuit for sky130_fd_sc_hd__sedfxtp_4 abstract view
.subckt sky130_fd_sc_hd__sedfxtp_4 CLK D DE SCD SCE VGND VNB VPB VPWR Q
.ends

* Black-box entry subcircuit for sky130_fd_sc_hd__sedfxbp_2 abstract view
.subckt sky130_fd_sc_hd__sedfxbp_2 CLK D DE SCD SCE VGND VNB VPB VPWR Q Q_N
.ends

* Black-box entry subcircuit for sky130_fd_sc_hd__dlrbn_2 abstract view
.subckt sky130_fd_sc_hd__dlrbn_2 D GATE_N RESET_B VGND VNB VPB VPWR Q Q_N
.ends

* Black-box entry subcircuit for sky130_fd_sc_hd__dfsbp_1 abstract view
.subckt sky130_fd_sc_hd__dfsbp_1 CLK D SET_B VGND VNB VPB VPWR Q Q_N
.ends

* Black-box entry subcircuit for sky130_fd_sc_hd__a21oi_4 abstract view
.subckt sky130_fd_sc_hd__a21oi_4 A1 A2 B1 VGND VNB VPB VPWR Y
.ends

* Black-box entry subcircuit for sky130_fd_sc_hd__dlrtn_2 abstract view
.subckt sky130_fd_sc_hd__dlrtn_2 D GATE_N RESET_B VGND VNB VPB VPWR Q
.ends

* Black-box entry subcircuit for sky130_fd_sc_hd__sedfxbp_1 abstract view
.subckt sky130_fd_sc_hd__sedfxbp_1 CLK D DE SCD SCE VGND VNB VPB VPWR Q Q_N
.ends

* Black-box entry subcircuit for sky130_fd_sc_hd__buf_16 abstract view
.subckt sky130_fd_sc_hd__buf_16 A VGND VNB VPB VPWR X
.ends

* Black-box entry subcircuit for sky130_fd_sc_hd__dlrtp_4 abstract view
.subckt sky130_fd_sc_hd__dlrtp_4 D GATE RESET_B VGND VNB VPB VPWR Q
.ends

* Black-box entry subcircuit for sky130_fd_sc_hd__dfbbn_1 abstract view
.subckt sky130_fd_sc_hd__dfbbn_1 CLK_N D RESET_B SET_B VGND VNB VPB VPWR Q Q_N
.ends

* Black-box entry subcircuit for sky130_fd_sc_hd__dfrtp_1 abstract view
.subckt sky130_fd_sc_hd__dfrtp_1 CLK D RESET_B VGND VNB VPB VPWR Q
.ends

* Black-box entry subcircuit for sky130_fd_sc_hd__dfxtp_4 abstract view
.subckt sky130_fd_sc_hd__dfxtp_4 CLK D VGND VNB VPB VPWR Q
.ends

.subckt netlist_2 VGND VPWR clk in0 in1 in10 in11 in12 in13 in14 in15 in16 in17 in18
+ in19 in2 in20 in21 in22 in23 in24 in25 in26 in27 in28 in29 in3 in30 in31 in32 in33
+ in34 in35 in36 in37 in38 in39 in4 in40 in41 in42 in43 in44 in45 in46 in47 in48 in49
+ in5 in50 in51 in6 in7 in8 in9 out0 out1 out10 out11 out12 out13 out14 out15 out16
+ out17 out18 out19 out2 out20 out21 out22 out23 out24 out25 out26 out27 out28 out29
+ out3 out30 out31 out32 out33 out34 out35 out36 out37 out38 out39 out4 out40 out41
+ out42 out43 out44 out45 out46 out47 out48 out49 out5 out50 out51 out6 out7 out8
+ out9 rst
XFILLER_0_94_77 VGND VGND VPWR VPWR sky130_fd_sc_hd__decap_6
XFILLER_0_27_82 VGND VGND VPWR VPWR sky130_fd_sc_hd__fill_1
Xclkbuf_1_1__f_net270 clknet_0_net270 VGND VGND VPWR VPWR clknet_1_1__leaf_net270
+ sky130_fd_sc_hd__clkbuf_16
XFILLER_0_89_461 VGND VGND VPWR VPWR sky130_fd_sc_hd__fill_2
XANTENNA_s983_CLK clknet_4_8_0_clk VGND VGND VPWR VPWR sky130_fd_sc_hd__diode_2
XANTENNA_c421_B net227 VGND VGND VPWR VPWR sky130_fd_sc_hd__diode_2
XFILLER_0_64_328 VGND VGND VPWR VPWR sky130_fd_sc_hd__decap_4
XFILLER_0_91_169 VPWR VGND VPWR VGND sky130_ef_sc_hd__decap_12
XFILLER_0_45_553 VGND VGND VPWR VPWR sky130_fd_sc_hd__decap_6
XFILLER_0_45_597 VPWR VGND VPWR VGND sky130_ef_sc_hd__decap_12
XFILLER_0_60_501 VPWR VGND VPWR VGND sky130_ef_sc_hd__decap_12
XANTENNA_c202_X net152 VGND VGND VPWR VPWR sky130_fd_sc_hd__diode_2
XFILLER_0_60_545 VPWR VGND VPWR VGND sky130_ef_sc_hd__decap_12
Xc327 net763 VGND VGND VPWR VPWR net277 sky130_fd_sc_hd__clkbuf_1
Xc316 net9 net219 net973 net257 net1056 VGND VGND VPWR VPWR net265 sky130_fd_sc_hd__a41o_2
Xc305 clknet_1_0__leaf_net247 net249 net242 net241 net217 net1056 VGND VGND VPWR VPWR
+ net253 sky130_fd_sc_hd__mux4_4
XFILLER_0_13_461 VPWR VGND VPWR VGND sky130_ef_sc_hd__decap_12
XFILLER_0_60_589 VPWR VGND VPWR VGND sky130_ef_sc_hd__decap_12
Xc338 net280 net7 net2 VGND VGND VPWR VPWR net288 sky130_fd_sc_hd__o21ai_2
Xc349 net746 VGND VGND VPWR VPWR net1001 sky130_fd_sc_hd__inv_12
XFILLER_0_7_81 VPWR VGND VPWR VGND sky130_ef_sc_hd__decap_12
XANTENNA_c676_Y net578 VGND VGND VPWR VPWR sky130_fd_sc_hd__diode_2
XANTENNA_c431_A1 clknet_1_0__leaf_net990 VGND VGND VPWR VPWR sky130_fd_sc_hd__diode_2
XFILLER_0_99_225 VGND VGND VPWR VPWR sky130_fd_sc_hd__decap_6
Xmerge815 net129 net112 net1061 net214 net115 net984 VGND VGND VPWR VPWR net723 sky130_fd_sc_hd__mux4_1
XFILLER_0_83_615 VGND VGND VPWR VPWR sky130_fd_sc_hd__fill_1
Xmerge804 net1020 clknet_1_0__leaf_net147 net311 net761 net771 VGND VGND VPWR VPWR
+ net712 sky130_fd_sc_hd__a41oi_1
Xmerge826 clknet_1_1__leaf_net464 clknet_1_0__leaf_net463 clknet_1_0__leaf_net458
+ net221 net941 net213 VGND VGND VPWR VPWR net734 sky130_fd_sc_hd__mux4_2
Xmerge837 net401 net408 VGND VGND VPWR VPWR net747 sky130_fd_sc_hd__xor2_4
XFILLER_0_67_155 VGND VGND VPWR VPWR sky130_fd_sc_hd__decap_4
Xs932 clknet_4_13_0_clk net33 VGND VGND VPWR VPWR net862 net861 sky130_fd_sc_hd__dfxbp_1
Xs943 net208 clknet_4_15_0_clk VGND VGND VPWR VPWR net1005 sky130_fd_sc_hd__dlxtn_2
Xmerge859 net325 net326 VGND VGND VPWR VPWR net774 sky130_fd_sc_hd__xor2_2
Xmerge848 net520 net524 VGND VGND VPWR VPWR net760 sky130_fd_sc_hd__xnor2_1
XFILLER_0_70_309 VPWR VGND VPWR VGND sky130_ef_sc_hd__decap_12
Xs976 net615 clknet_4_2_0_clk VGND VGND VPWR VPWR net908 sky130_fd_sc_hd__dlxtn_1
XFILLER_0_36_531 VGND VGND VPWR VPWR sky130_fd_sc_hd__fill_1
Xs965 clknet_4_3_0_clk net494 VGND VGND VPWR VPWR net895 net894 sky130_fd_sc_hd__dfxbp_1
Xs954 clknet_4_1_0_clk net352 VGND VGND VPWR VPWR net880 sky130_fd_sc_hd__dlclkp_2
XTAP_TAPCELL_ROW_11_345 VGND VPWR sky130_fd_sc_hd__tapvpwrvgnd_1
XFILLER_0_3_609 VGND VGND VPWR VPWR sky130_fd_sc_hd__decap_6
Xs987 clknet_4_4_0_clk net716 VGND VGND VPWR VPWR net921 sky130_fd_sc_hd__dlclkp_4
XFILLER_0_63_361 VGND VGND VPWR VPWR sky130_fd_sc_hd__fill_2
XFILLER_0_90_180 VPWR VGND VPWR VGND sky130_ef_sc_hd__decap_12
XANTENNA_c606_A1 net499 VGND VGND VPWR VPWR sky130_fd_sc_hd__diode_2
Xrebuffer7 net1074 VGND VGND VPWR VPWR net1075 sky130_fd_sc_hd__dlygate4sd1_1
XTAP_TAPCELL_ROW_97_1288 VGND VPWR sky130_fd_sc_hd__tapvpwrvgnd_1
XANTENNA_c325_A2 net265 VGND VGND VPWR VPWR sky130_fd_sc_hd__diode_2
XFILLER_0_3_39 VPWR VGND VPWR VGND sky130_ef_sc_hd__decap_12
XTAP_TAPCELL_ROW_47_732 VGND VPWR sky130_fd_sc_hd__tapvpwrvgnd_1
XTAP_TAPCELL_ROW_19_434 VGND VPWR sky130_fd_sc_hd__tapvpwrvgnd_1
XANTENNA_s965_CLK clknet_4_3_0_clk VGND VGND VPWR VPWR sky130_fd_sc_hd__diode_2
XFILLER_0_86_475 VGND VGND VPWR VPWR sky130_fd_sc_hd__fill_1
XFILLER_0_58_166 VGND VGND VPWR VPWR sky130_fd_sc_hd__decap_6
XFILLER_0_80_79 VGND VGND VPWR VPWR sky130_fd_sc_hd__decap_4
XFILLER_0_13_51 VGND VGND VPWR VPWR sky130_fd_sc_hd__decap_4
XFILLER_0_73_169 VGND VGND VPWR VPWR sky130_fd_sc_hd__decap_6
XFILLER_0_27_553 VGND VGND VPWR VPWR sky130_fd_sc_hd__decap_6
XFILLER_0_6_469 VGND VGND VPWR VPWR sky130_fd_sc_hd__decap_6
XFILLER_0_27_597 VPWR VGND VPWR VGND sky130_ef_sc_hd__decap_12
XFILLER_0_42_501 VPWR VGND VPWR VGND sky130_ef_sc_hd__decap_12
XFILLER_0_42_545 VPWR VGND VPWR VGND sky130_ef_sc_hd__decap_12
XFILLER_0_42_589 VPWR VGND VPWR VGND sky130_ef_sc_hd__decap_12
XTAP_TAPCELL_ROW_74_1030 VGND VPWR sky130_fd_sc_hd__tapvpwrvgnd_1
XFILLER_0_10_475 VGND VGND VPWR VPWR sky130_fd_sc_hd__fill_1
Xfanout105 net346 VGND VGND VPWR VPWR net1033 sky130_fd_sc_hd__clkbuf_4
Xfanout116 net984 VGND VGND VPWR VPWR net1044 sky130_fd_sc_hd__buf_8
XFILLER_0_96_217 VPWR VGND VPWR VGND sky130_ef_sc_hd__decap_12
XANTENNA_c152_X net103 VGND VGND VPWR VPWR sky130_fd_sc_hd__diode_2
XANTENNA_merge828_A1 net980 VGND VGND VPWR VPWR sky130_fd_sc_hd__diode_2
XFILLER_0_49_133 VGND VGND VPWR VPWR sky130_fd_sc_hd__decap_4
Xclkbuf_1_0__f_net860 clknet_0_net860 VGND VGND VPWR VPWR clknet_1_0__leaf_net860
+ sky130_fd_sc_hd__clkbuf_16
XFILLER_0_65_615 VGND VGND VPWR VPWR sky130_fd_sc_hd__fill_1
XFILLER_0_92_412 VGND VGND VPWR VPWR sky130_fd_sc_hd__decap_8
XFILLER_0_77_497 VGND VGND VPWR VPWR sky130_fd_sc_hd__decap_6
XANTENNA_merge920_GATE_N clknet_4_11_0_clk VGND VGND VPWR VPWR sky130_fd_sc_hd__diode_2
XFILLER_0_18_531 VGND VGND VPWR VPWR sky130_fd_sc_hd__fill_1
XFILLER_0_52_309 VPWR VGND VPWR VGND sky130_ef_sc_hd__decap_12
XFILLER_0_92_489 VPWR VGND VPWR VGND sky130_ef_sc_hd__decap_12
XANTENNA_c707_B1 net568 VGND VGND VPWR VPWR sky130_fd_sc_hd__diode_2
XFILLER_0_33_501 VGND VGND VPWR VPWR sky130_fd_sc_hd__decap_3
XFILLER_0_45_383 VGND VGND VPWR VPWR sky130_fd_sc_hd__decap_8
Xc102 net955 net46 VGND VGND VPWR VPWR net49 sky130_fd_sc_hd__xor2_1
XFILLER_0_60_353 VGND VGND VPWR VPWR sky130_fd_sc_hd__decap_8
Xc124 net50 net45 net61 net1051 net862 VGND VGND VPWR VPWR net74 sky130_fd_sc_hd__a41o_1
Xc113 net672 VGND VGND VPWR VPWR net61 sky130_fd_sc_hd__buf_1
Xc135 net952 net937 VGND VGND VPWR VPWR net86 sky130_fd_sc_hd__xnor2_4
XFILLER_0_20_217 VGND VGND VPWR VPWR sky130_fd_sc_hd__fill_1
Xc168 net959 net116 net1061 VGND VGND VPWR VPWR net119 sky130_fd_sc_hd__o21a_1
Xc157 net948 net964 VGND VGND VPWR VPWR net108 sky130_fd_sc_hd__xor2_1
Xc146 net96 net83 net92 VGND VGND VPWR VPWR net97 sky130_fd_sc_hd__o21bai_2
Xc179 net1048 net935 VGND VGND VPWR VPWR net129 sky130_fd_sc_hd__xnor2_1
XFILLER_0_18_29 VPWR VGND VPWR VGND sky130_ef_sc_hd__decap_12
XANTENNA_merge929_CLK clknet_4_3_0_clk VGND VGND VPWR VPWR sky130_fd_sc_hd__diode_2
XTAP_TAPCELL_ROW_44_702 VGND VPWR sky130_fd_sc_hd__tapvpwrvgnd_1
XFILLER_0_68_486 VGND VGND VPWR VPWR sky130_fd_sc_hd__fill_1
XFILLER_0_28_317 VGND VGND VPWR VPWR sky130_fd_sc_hd__decap_4
XTAP_TAPCELL_ROW_99_1306 VGND VPWR sky130_fd_sc_hd__tapvpwrvgnd_1
XFILLER_0_71_607 VGND VGND VPWR VPWR sky130_fd_sc_hd__decap_8
XTAP_TAPCELL_ROW_24_481 VGND VPWR sky130_fd_sc_hd__tapvpwrvgnd_1
XFILLER_0_50_27 VGND VGND VPWR VPWR sky130_fd_sc_hd__fill_1
XTAP_TAPCELL_ROW_52_790 VGND VPWR sky130_fd_sc_hd__tapvpwrvgnd_1
XFILLER_0_24_501 VPWR VGND VPWR VGND sky130_ef_sc_hd__decap_12
XANTENNA_c617_A0 net979 VGND VGND VPWR VPWR sky130_fd_sc_hd__diode_2
XFILLER_0_3_417 VPWR VGND VPWR VGND sky130_ef_sc_hd__decap_12
XFILLER_0_24_545 VPWR VGND VPWR VGND sky130_ef_sc_hd__decap_12
XFILLER_0_51_331 VGND VGND VPWR VPWR sky130_fd_sc_hd__fill_1
XFILLER_0_24_589 VPWR VGND VPWR VGND sky130_ef_sc_hd__decap_12
XFILLER_0_11_217 VGND VGND VPWR VPWR sky130_fd_sc_hd__decap_6
Xc691 net797 VGND VGND VPWR VPWR net593 sky130_fd_sc_hd__buf_6
Xc680 net572 net573 clknet_1_0__leaf_net576 VGND VGND VPWR VPWR net582 sky130_fd_sc_hd__o21a_1
XFILLER_0_75_79 VPWR VGND VPWR VGND sky130_ef_sc_hd__decap_12
XFILLER_0_75_57 VGND VGND VPWR VPWR sky130_fd_sc_hd__decap_6
XANTENNA_c502_A3 net166 VGND VGND VPWR VPWR sky130_fd_sc_hd__diode_2
XANTENNA_c281_CLK clknet_4_4_0_clk VGND VGND VPWR VPWR sky130_fd_sc_hd__diode_2
XANTENNA_s938_CLK clknet_4_7_0_clk VGND VGND VPWR VPWR sky130_fd_sc_hd__diode_2
XFILLER_0_47_615 VGND VGND VPWR VPWR sky130_fd_sc_hd__fill_1
XFILLER_0_19_317 VPWR VGND VPWR VGND sky130_ef_sc_hd__decap_12
XFILLER_0_6_233 VPWR VGND VPWR VGND sky130_ef_sc_hd__decap_12
XFILLER_0_34_309 VPWR VGND VPWR VGND sky130_ef_sc_hd__decap_12
XFILLER_0_46_169 VGND VGND VPWR VPWR sky130_fd_sc_hd__fill_2
XANTENNA_merge814_A3 net32 VGND VGND VPWR VPWR sky130_fd_sc_hd__diode_2
Xclkbuf_4_12_0_clk clknet_0_clk VGND VGND VPWR VPWR clknet_4_12_0_clk sky130_fd_sc_hd__clkbuf_8
XFILLER_0_6_277 VPWR VGND VPWR VGND sky130_ef_sc_hd__decap_12
XANTENNA_c112_A net672 VGND VGND VPWR VPWR sky130_fd_sc_hd__diode_2
XFILLER_0_40_82 VGND VGND VPWR VPWR sky130_fd_sc_hd__fill_2
XFILLER_0_42_353 VGND VGND VPWR VPWR sky130_fd_sc_hd__decap_8
XFILLER_0_100_469 VGND VGND VPWR VPWR sky130_fd_sc_hd__decap_6
XANTENNA_c412_A3 net338 VGND VGND VPWR VPWR sky130_fd_sc_hd__diode_2
XFILLER_0_97_537 VPWR VGND VPWR VGND sky130_ef_sc_hd__decap_12
XTAP_TAPCELL_ROW_83_1129 VGND VPWR sky130_fd_sc_hd__tapvpwrvgnd_1
XANTENNA_c55_B1 net975 VGND VGND VPWR VPWR sky130_fd_sc_hd__diode_2
XFILLER_0_92_253 VPWR VGND VPWR VGND sky130_ef_sc_hd__decap_12
XFILLER_0_37_169 VPWR VGND VPWR VGND sky130_ef_sc_hd__decap_12
XANTENNA_c437_B1 net363 VGND VGND VPWR VPWR sky130_fd_sc_hd__diode_2