*SPEF "ieee 1481-1999"
*DESIGN "netlist_1"
*DATE "20:44:20 Sunday July 21, 2024"
*VENDOR "The OpenROAD Project"
*PROGRAM "OpenROAD"
*VERSION "d423155d69de7f683a23f6916ead418a615ad4ad"
*DESIGN_FLOW "NAME_SCOPE LOCAL" "PIN_CAP NONE"
*DIVIDER /
*DELIMITER :
*BUS_DELIMITER []
*T_UNIT 1 NS
*C_UNIT 1 PF
*R_UNIT 1 OHM
*L_UNIT 1 HENRY

*NAME_MAP
*3 clk
*4 in0
*5 in1
*6 in10
*7 in11
*8 in12
*9 in13
*10 in14
*11 in15
*12 in16
*13 in17
*14 in18
*15 in19
*16 in2
*17 in20
*18 in21
*19 in22
*20 in23
*21 in24
*22 in25
*23 in26
*24 in27
*25 in28
*26 in29
*27 in3
*28 in30
*29 in31
*30 in32
*31 in33
*32 in34
*33 in35
*34 in36
*35 in37
*36 in38
*37 in39
*38 in4
*39 in40
*40 in41
*41 in42
*42 in43
*43 in44
*44 in45
*45 in46
*46 in47
*47 in48
*48 in49
*49 in5
*50 in50
*51 in51
*52 in52
*53 in53
*54 in54
*55 in55
*56 in56
*57 in57
*58 in58
*59 in59
*60 in6
*61 in60
*62 in61
*63 in7
*64 in8
*65 in9
*66 out0
*67 out1
*68 out10
*69 out11
*70 out12
*71 out13
*72 out14
*73 out15
*74 out16
*75 out17
*76 out18
*77 out19
*78 out2
*79 out20
*80 out21
*81 out22
*82 out23
*83 out24
*84 out25
*85 out26
*86 out27
*87 out28
*88 out29
*89 out3
*90 out30
*91 out31
*92 out32
*93 out33
*94 out34
*95 out35
*96 out36
*97 out37
*98 out38
*99 out39
*100 out4
*101 out40
*102 out41
*103 out42
*104 out43
*105 out44
*106 out45
*107 out46
*108 out47
*109 out48
*110 out49
*111 out5
*112 out50
*113 out51
*114 out52
*115 out53
*116 out54
*117 out55
*118 out56
*119 out57
*120 out58
*121 out59
*122 out6
*123 out60
*124 out61
*125 out7
*126 out8
*127 out9
*128 rst
*129 clknet_0_clk
*130 clknet_0_net130
*131 clknet_0_net147
*132 clknet_0_net151
*133 clknet_0_net152
*134 clknet_0_net153
*135 clknet_0_net245
*136 clknet_0_net247
*137 clknet_0_net249
*138 clknet_0_net252
*139 clknet_0_net261
*140 clknet_0_net316
*141 clknet_0_net317
*142 clknet_0_net322
*143 clknet_0_net350
*144 clknet_0_net355
*145 clknet_0_net370
*146 clknet_0_net371
*147 clknet_0_net372
*148 clknet_0_net381
*149 clknet_0_net382
*150 clknet_0_net385
*151 clknet_0_net386
*152 clknet_0_net397
*153 clknet_0_net403
*154 clknet_0_net409
*155 clknet_0_net450
*156 clknet_0_net453
*157 clknet_0_net459
*158 clknet_0_net465
*159 clknet_0_net467
*160 clknet_0_net471
*161 clknet_0_net473
*162 clknet_0_net474
*163 clknet_0_net479
*164 clknet_0_net482
*165 clknet_0_net490
*166 clknet_0_net496
*167 clknet_0_net511
*168 clknet_0_net551
*169 clknet_0_net552
*170 clknet_0_net557
*171 clknet_0_net558
*172 clknet_0_net560
*173 clknet_0_net568
*174 clknet_0_net569
*175 clknet_0_net575
*176 clknet_0_net581
*177 clknet_0_net583
*178 clknet_0_net616
*179 clknet_0_net618
*180 clknet_0_net625
*181 clknet_0_net626
*182 clknet_0_net628
*183 clknet_0_net703
*184 clknet_0_net704
*185 clknet_0_net705
*186 clknet_0_net725
*187 clknet_0_net726
*188 clknet_0_net727
*189 clknet_0_net743
*190 clknet_0_net744
*191 clknet_0_net759
*192 clknet_0_net760
*193 clknet_0_net761
*194 clknet_0_net779
*195 clknet_0_net780
*196 clknet_0_net781
*197 clknet_0_net800
*198 clknet_0_net801
*199 clknet_0_net802
*200 clknet_0_net876
*201 clknet_0_net880
*202 clknet_0_net893
*203 clknet_0_net901
*204 clknet_0_net906
*205 clknet_0_net908
*206 clknet_0_net911
*207 clknet_1_0__leaf_net130
*208 clknet_1_0__leaf_net147
*209 clknet_1_0__leaf_net151
*210 clknet_1_0__leaf_net152
*211 clknet_1_0__leaf_net153
*212 clknet_1_0__leaf_net245
*213 clknet_1_0__leaf_net247
*214 clknet_1_0__leaf_net249
*215 clknet_1_0__leaf_net252
*216 clknet_1_0__leaf_net261
*217 clknet_1_0__leaf_net316
*218 clknet_1_0__leaf_net317
*219 clknet_1_0__leaf_net322
*220 clknet_1_0__leaf_net350
*221 clknet_1_0__leaf_net355
*222 clknet_1_0__leaf_net370
*223 clknet_1_0__leaf_net371
*224 clknet_1_0__leaf_net372
*225 clknet_1_0__leaf_net381
*226 clknet_1_0__leaf_net382
*227 clknet_1_0__leaf_net385
*228 clknet_1_0__leaf_net386
*229 clknet_1_0__leaf_net397
*230 clknet_1_0__leaf_net403
*231 clknet_1_0__leaf_net409
*232 clknet_1_0__leaf_net450
*233 clknet_1_0__leaf_net453
*234 clknet_1_0__leaf_net459
*235 clknet_1_0__leaf_net465
*236 clknet_1_0__leaf_net467
*237 clknet_1_0__leaf_net471
*238 clknet_1_0__leaf_net473
*239 clknet_1_0__leaf_net474
*240 clknet_1_0__leaf_net479
*241 clknet_1_0__leaf_net482
*242 clknet_1_0__leaf_net490
*243 clknet_1_0__leaf_net496
*244 clknet_1_0__leaf_net511
*245 clknet_1_0__leaf_net551
*246 clknet_1_0__leaf_net552
*247 clknet_1_0__leaf_net557
*248 clknet_1_0__leaf_net558
*249 clknet_1_0__leaf_net560
*250 clknet_1_0__leaf_net568
*251 clknet_1_0__leaf_net569
*252 clknet_1_0__leaf_net575
*253 clknet_1_0__leaf_net581
*254 clknet_1_0__leaf_net583
*255 clknet_1_0__leaf_net616
*256 clknet_1_0__leaf_net618
*257 clknet_1_0__leaf_net625
*258 clknet_1_0__leaf_net626
*259 clknet_1_0__leaf_net628
*260 clknet_1_0__leaf_net703
*261 clknet_1_0__leaf_net704
*262 clknet_1_0__leaf_net705
*263 clknet_1_0__leaf_net725
*264 clknet_1_0__leaf_net726
*265 clknet_1_0__leaf_net727
*266 clknet_1_0__leaf_net743
*267 clknet_1_0__leaf_net744
*268 clknet_1_0__leaf_net759
*269 clknet_1_0__leaf_net760
*270 clknet_1_0__leaf_net761
*271 clknet_1_0__leaf_net779
*272 clknet_1_0__leaf_net780
*273 clknet_1_0__leaf_net781
*274 clknet_1_0__leaf_net800
*275 clknet_1_0__leaf_net801
*276 clknet_1_0__leaf_net802
*277 clknet_1_0__leaf_net876
*278 clknet_1_0__leaf_net880
*279 clknet_1_0__leaf_net893
*280 clknet_1_0__leaf_net901
*281 clknet_1_0__leaf_net906
*282 clknet_1_0__leaf_net908
*283 clknet_1_0__leaf_net911
*284 clknet_1_1__leaf_net130
*285 clknet_1_1__leaf_net147
*286 clknet_1_1__leaf_net151
*287 clknet_1_1__leaf_net152
*288 clknet_1_1__leaf_net153
*289 clknet_1_1__leaf_net245
*290 clknet_1_1__leaf_net247
*291 clknet_1_1__leaf_net249
*292 clknet_1_1__leaf_net252
*293 clknet_1_1__leaf_net261
*294 clknet_1_1__leaf_net316
*295 clknet_1_1__leaf_net317
*296 clknet_1_1__leaf_net322
*297 clknet_1_1__leaf_net350
*298 clknet_1_1__leaf_net355
*299 clknet_1_1__leaf_net370
*300 clknet_1_1__leaf_net371
*301 clknet_1_1__leaf_net372
*302 clknet_1_1__leaf_net381
*303 clknet_1_1__leaf_net382
*304 clknet_1_1__leaf_net385
*305 clknet_1_1__leaf_net386
*306 clknet_1_1__leaf_net397
*307 clknet_1_1__leaf_net403
*308 clknet_1_1__leaf_net409
*309 clknet_1_1__leaf_net450
*310 clknet_1_1__leaf_net453
*311 clknet_1_1__leaf_net459
*312 clknet_1_1__leaf_net465
*313 clknet_1_1__leaf_net467
*314 clknet_1_1__leaf_net471
*315 clknet_1_1__leaf_net473
*316 clknet_1_1__leaf_net474
*317 clknet_1_1__leaf_net479
*318 clknet_1_1__leaf_net482
*319 clknet_1_1__leaf_net490
*320 clknet_1_1__leaf_net496
*321 clknet_1_1__leaf_net511
*322 clknet_1_1__leaf_net551
*323 clknet_1_1__leaf_net552
*324 clknet_1_1__leaf_net557
*325 clknet_1_1__leaf_net558
*326 clknet_1_1__leaf_net560
*327 clknet_1_1__leaf_net568
*328 clknet_1_1__leaf_net569
*329 clknet_1_1__leaf_net575
*330 clknet_1_1__leaf_net581
*331 clknet_1_1__leaf_net583
*332 clknet_1_1__leaf_net616
*333 clknet_1_1__leaf_net618
*334 clknet_1_1__leaf_net625
*335 clknet_1_1__leaf_net626
*336 clknet_1_1__leaf_net628
*337 clknet_1_1__leaf_net703
*338 clknet_1_1__leaf_net704
*339 clknet_1_1__leaf_net705
*340 clknet_1_1__leaf_net725
*341 clknet_1_1__leaf_net726
*342 clknet_1_1__leaf_net727
*343 clknet_1_1__leaf_net743
*344 clknet_1_1__leaf_net744
*345 clknet_1_1__leaf_net759
*346 clknet_1_1__leaf_net760
*347 clknet_1_1__leaf_net761
*348 clknet_1_1__leaf_net779
*349 clknet_1_1__leaf_net780
*350 clknet_1_1__leaf_net781
*351 clknet_1_1__leaf_net800
*352 clknet_1_1__leaf_net801
*353 clknet_1_1__leaf_net802
*354 clknet_1_1__leaf_net876
*355 clknet_1_1__leaf_net880
*356 clknet_1_1__leaf_net893
*357 clknet_1_1__leaf_net901
*358 clknet_1_1__leaf_net906
*359 clknet_1_1__leaf_net908
*360 clknet_1_1__leaf_net911
*361 clknet_4_0_0_clk
*362 clknet_4_10_0_clk
*363 clknet_4_11_0_clk
*364 clknet_4_12_0_clk
*365 clknet_4_13_0_clk
*366 clknet_4_14_0_clk
*367 clknet_4_15_0_clk
*368 clknet_4_1_0_clk
*369 clknet_4_2_0_clk
*370 clknet_4_3_0_clk
*371 clknet_4_4_0_clk
*372 clknet_4_5_0_clk
*373 clknet_4_6_0_clk
*374 clknet_4_7_0_clk
*375 clknet_4_8_0_clk
*376 clknet_4_9_0_clk
*377 net0
*378 net1
*379 net10
*380 net100
*381 net1000
*382 net1001
*383 net1002
*384 net1003
*385 net1004
*386 net1005
*387 net1006
*388 net1007
*389 net1008
*390 net1009
*391 net101
*392 net1010
*393 net1011
*394 net1012
*395 net1013
*396 net1014
*397 net1015
*398 net1016
*399 net1017
*400 net1018
*401 net1019
*402 net102
*403 net1020
*404 net1021
*405 net1022
*406 net1023
*407 net1024
*408 net1025
*409 net1026
*410 net1027
*411 net1028
*412 net1029
*413 net103
*414 net104
*415 net105
*416 net106
*417 net107
*418 net108
*419 net109
*420 net11
*421 net110
*422 net111
*423 net112
*424 net113
*425 net114
*426 net115
*427 net116
*428 net117
*429 net118
*430 net119
*431 net12
*432 net120
*433 net121
*434 net122
*435 net123
*436 net124
*437 net125
*438 net126
*439 net127
*440 net128
*441 net129
*442 net13
*443 net130
*444 net131
*445 net132
*446 net133
*447 net134
*448 net135
*449 net136
*450 net137
*451 net138
*452 net139
*453 net14
*454 net140
*455 net141
*456 net142
*457 net143
*458 net144
*459 net145
*460 net146
*461 net147
*462 net148
*463 net149
*464 net15
*465 net150
*466 net151
*467 net152
*468 net153
*469 net154
*470 net155
*471 net156
*472 net157
*473 net158
*474 net159
*475 net16
*476 net160
*477 net161
*478 net162
*479 net163
*480 net164
*481 net165
*482 net166
*483 net167
*484 net168
*485 net169
*486 net17
*487 net170
*488 net171
*489 net172
*490 net173
*491 net174
*492 net175
*493 net176
*494 net177
*495 net178
*496 net179
*497 net18
*498 net180
*499 net181
*500 net182
*501 net183
*502 net184
*503 net185
*504 net186
*505 net187
*506 net188
*507 net189
*508 net19
*509 net190
*510 net191
*511 net192
*512 net193
*513 net194
*514 net195
*515 net196
*516 net197
*517 net198
*518 net199
*519 net2
*520 net20
*521 net200
*522 net201
*523 net202
*524 net203
*525 net204
*526 net205
*527 net206
*528 net207
*529 net208
*530 net209
*531 net21
*532 net210
*533 net211
*534 net212
*535 net213
*536 net214
*537 net215
*538 net216
*539 net217
*540 net218
*541 net219
*542 net22
*543 net220
*544 net221
*545 net222
*546 net223
*547 net224
*548 net225
*549 net226
*550 net227
*551 net228
*552 net229
*553 net23
*554 net230
*555 net231
*556 net232
*557 net233
*558 net234
*559 net235
*560 net236
*561 net237
*562 net238
*563 net239
*564 net24
*565 net240
*566 net241
*567 net242
*568 net243
*569 net244
*570 net245
*571 net246
*572 net247
*573 net248
*574 net249
*575 net25
*576 net250
*577 net251
*578 net252
*579 net253
*580 net254
*581 net255
*582 net256
*583 net257
*584 net258
*585 net259
*586 net26
*587 net260
*588 net261
*589 net262
*590 net263
*591 net264
*592 net265
*593 net266
*594 net267
*595 net268
*596 net269
*597 net27
*598 net270
*599 net271
*600 net272
*601 net273
*602 net274
*603 net275
*604 net276
*605 net277
*606 net278
*607 net279
*608 net28
*609 net280
*610 net281
*611 net282
*612 net283
*613 net284
*614 net285
*615 net286
*616 net287
*617 net288
*618 net289
*619 net29
*620 net290
*621 net291
*622 net292
*623 net293
*624 net294
*625 net295
*626 net296
*627 net297
*628 net298
*629 net299
*630 net3
*631 net30
*632 net300
*633 net301
*634 net302
*635 net303
*636 net304
*637 net305
*638 net306
*639 net307
*640 net308
*641 net309
*642 net31
*643 net310
*644 net311
*645 net312
*646 net313
*647 net314
*648 net315
*649 net316
*650 net317
*651 net318
*652 net319
*653 net32
*654 net320
*655 net321
*656 net322
*657 net323
*658 net324
*659 net325
*660 net326
*661 net327
*662 net328
*663 net329
*664 net33
*665 net330
*666 net331
*667 net332
*668 net333
*669 net334
*670 net335
*671 net336
*672 net337
*673 net338
*674 net339
*675 net34
*676 net340
*677 net341
*678 net342
*679 net343
*680 net344
*681 net345
*682 net346
*683 net347
*684 net348
*685 net349
*686 net35
*687 net350
*688 net351
*689 net352
*690 net353
*691 net354
*692 net355
*693 net356
*694 net357
*695 net358
*696 net359
*697 net36
*698 net360
*699 net361
*700 net362
*701 net363
*702 net364
*703 net365
*704 net366
*705 net367
*706 net368
*707 net369
*708 net37
*709 net370
*710 net371
*711 net372
*712 net373
*713 net374
*714 net375
*715 net376
*716 net377
*717 net378
*718 net379
*719 net38
*720 net380
*721 net381
*722 net382
*723 net383
*724 net384
*725 net385
*726 net386
*727 net387
*728 net388
*729 net389
*730 net39
*731 net390
*732 net391
*733 net392
*734 net393
*735 net394
*736 net395
*737 net396
*738 net397
*739 net398
*740 net399
*741 net4
*742 net40
*743 net400
*744 net401
*745 net402
*746 net403
*747 net404
*748 net405
*749 net406
*750 net407
*751 net408
*752 net409
*753 net41
*754 net410
*755 net411
*756 net412
*757 net413
*758 net414
*759 net415
*760 net416
*761 net417
*762 net418
*763 net419
*764 net42
*765 net420
*766 net421
*767 net422
*768 net423
*769 net424
*770 net425
*771 net426
*772 net427
*773 net428
*774 net429
*775 net43
*776 net430
*777 net431
*778 net432
*779 net433
*780 net434
*781 net435
*782 net436
*783 net437
*784 net438
*785 net439
*786 net44
*787 net440
*788 net441
*789 net442
*790 net443
*791 net444
*792 net445
*793 net446
*794 net447
*795 net448
*796 net449
*797 net45
*798 net450
*799 net451
*800 net452
*801 net453
*802 net454
*803 net455
*804 net456
*805 net457
*806 net458
*807 net459
*808 net46
*809 net460
*810 net461
*811 net462
*812 net463
*813 net464
*814 net465
*815 net466
*816 net467
*817 net468
*818 net469
*819 net47
*820 net470
*821 net471
*822 net472
*823 net473
*824 net474
*825 net475
*826 net476
*827 net477
*828 net478
*829 net479
*830 net48
*831 net480
*832 net481
*833 net482
*834 net483
*835 net484
*836 net485
*837 net486
*838 net487
*839 net488
*840 net489
*841 net49
*842 net490
*843 net491
*844 net492
*845 net493
*846 net494
*847 net495
*848 net496
*849 net497
*850 net498
*851 net499
*852 net5
*853 net50
*854 net500
*855 net501
*856 net502
*857 net503
*858 net504
*859 net505
*860 net506
*861 net507
*862 net508
*863 net509
*864 net51
*865 net510
*866 net511
*867 net512
*868 net513
*869 net514
*870 net515
*871 net516
*872 net517
*873 net518
*874 net519
*875 net52
*876 net520
*877 net521
*878 net522
*879 net523
*880 net524
*881 net525
*882 net526
*883 net527
*884 net528
*885 net529
*886 net53
*887 net530
*888 net531
*889 net532
*890 net533
*891 net534
*892 net535
*893 net536
*894 net537
*895 net538
*896 net539
*897 net54
*898 net540
*899 net541
*900 net542
*901 net543
*902 net544
*903 net545
*904 net546
*905 net547
*906 net548
*907 net549
*908 net55
*909 net550
*910 net551
*911 net552
*912 net553
*913 net554
*914 net555
*915 net556
*916 net557
*917 net558
*918 net559
*919 net56
*920 net560
*921 net561
*922 net562
*923 net563
*924 net564
*925 net565
*926 net566
*927 net567
*928 net568
*929 net569
*930 net57
*931 net570
*932 net571
*933 net572
*934 net573
*935 net574
*936 net575
*937 net576
*938 net577
*939 net578
*940 net579
*941 net58
*942 net580
*943 net581
*944 net582
*945 net583
*946 net584
*947 net585
*948 net586
*949 net587
*950 net588
*951 net589
*952 net59
*953 net590
*954 net591
*955 net592
*956 net593
*957 net594
*958 net595
*959 net596
*960 net597
*961 net598
*962 net599
*963 net6
*964 net60
*965 net600
*966 net601
*967 net602
*968 net603
*969 net604
*970 net605
*971 net606
*972 net607
*973 net608
*974 net609
*975 net61
*976 net610
*977 net611
*978 net612
*979 net613
*980 net614
*981 net615
*982 net616
*983 net617
*984 net618
*985 net619
*986 net62
*987 net620
*988 net621
*989 net622
*990 net623
*991 net624
*992 net625
*993 net626
*994 net627
*995 net628
*996 net629
*997 net63
*998 net630
*999 net631
*1000 net632
*1001 net633
*1002 net634
*1003 net635
*1004 net636
*1005 net637
*1006 net638
*1007 net639
*1008 net64
*1009 net640
*1010 net641
*1011 net642
*1012 net643
*1013 net644
*1014 net645
*1015 net646
*1016 net647
*1017 net648
*1018 net649
*1019 net65
*1020 net650
*1021 net651
*1022 net652
*1023 net653
*1024 net654
*1025 net655
*1026 net656
*1027 net657
*1028 net658
*1029 net659
*1030 net66
*1031 net660
*1032 net661
*1033 net662
*1034 net663
*1035 net664
*1036 net665
*1037 net666
*1038 net667
*1039 net668
*1040 net669
*1041 net67
*1042 net670
*1043 net671
*1044 net672
*1045 net673
*1046 net674
*1047 net675
*1048 net676
*1049 net677
*1050 net678
*1051 net679
*1052 net68
*1053 net680
*1054 net681
*1055 net682
*1056 net683
*1057 net684
*1058 net685
*1059 net686
*1060 net687
*1061 net688
*1062 net689
*1063 net69
*1064 net690
*1065 net691
*1066 net692
*1067 net693
*1068 net694
*1069 net695
*1070 net696
*1071 net697
*1072 net698
*1073 net699
*1074 net7
*1075 net70
*1076 net700
*1077 net701
*1078 net702
*1079 net703
*1080 net704
*1081 net705
*1082 net706
*1083 net707
*1084 net708
*1085 net709
*1086 net71
*1087 net710
*1088 net711
*1089 net712
*1090 net713
*1091 net714
*1092 net715
*1093 net716
*1094 net717
*1095 net718
*1096 net719
*1097 net72
*1098 net720
*1099 net721
*1100 net722
*1101 net723
*1102 net724
*1103 net725
*1104 net726
*1105 net727
*1106 net728
*1107 net729
*1108 net73
*1109 net730
*1110 net731
*1111 net732
*1112 net733
*1113 net734
*1114 net735
*1115 net736
*1116 net737
*1117 net738
*1118 net739
*1119 net74
*1120 net740
*1121 net741
*1122 net742
*1123 net743
*1124 net744
*1125 net745
*1126 net746
*1127 net747
*1128 net748
*1129 net749
*1130 net75
*1131 net750
*1132 net751
*1133 net752
*1134 net753
*1135 net754
*1136 net755
*1137 net756
*1138 net757
*1139 net758
*1140 net759
*1141 net76
*1142 net760
*1143 net761
*1144 net762
*1145 net763
*1146 net764
*1147 net765
*1148 net766
*1149 net767
*1150 net768
*1151 net769
*1152 net77
*1153 net770
*1154 net771
*1155 net772
*1156 net773
*1157 net774
*1158 net775
*1159 net776
*1160 net777
*1161 net778
*1162 net779
*1163 net78
*1164 net780
*1165 net781
*1166 net782
*1167 net783
*1168 net784
*1169 net785
*1170 net786
*1171 net787
*1172 net788
*1173 net789
*1174 net79
*1175 net790
*1176 net791
*1177 net792
*1178 net793
*1179 net794
*1180 net795
*1181 net796
*1182 net797
*1183 net798
*1184 net799
*1185 net8
*1186 net80
*1187 net800
*1188 net801
*1189 net802
*1190 net803
*1191 net804
*1192 net805
*1193 net806
*1194 net807
*1195 net808
*1196 net809
*1197 net81
*1198 net810
*1199 net811
*1200 net812
*1201 net813
*1202 net814
*1203 net815
*1204 net816
*1205 net817
*1206 net818
*1207 net819
*1208 net82
*1209 net820
*1210 net821
*1211 net822
*1212 net823
*1213 net824
*1214 net825
*1215 net826
*1216 net827
*1217 net828
*1218 net829
*1219 net83
*1220 net830
*1221 net831
*1222 net832
*1223 net833
*1224 net834
*1225 net835
*1226 net836
*1227 net837
*1228 net838
*1229 net839
*1230 net84
*1231 net840
*1232 net841
*1233 net842
*1234 net843
*1235 net844
*1236 net845
*1237 net846
*1238 net847
*1239 net848
*1240 net849
*1241 net85
*1242 net850
*1243 net851
*1244 net852
*1245 net853
*1246 net854
*1247 net855
*1248 net856
*1249 net857
*1250 net858
*1251 net859
*1252 net86
*1253 net860
*1254 net861
*1255 net862
*1256 net863
*1257 net864
*1258 net865
*1259 net866
*1260 net867
*1261 net868
*1262 net869
*1263 net87
*1264 net870
*1265 net871
*1266 net872
*1267 net873
*1268 net874
*1269 net875
*1270 net876
*1271 net877
*1272 net878
*1273 net879
*1274 net88
*1275 net880
*1276 net881
*1277 net882
*1278 net883
*1279 net884
*1280 net885
*1281 net886
*1282 net887
*1283 net888
*1284 net889
*1285 net89
*1286 net890
*1287 net891
*1288 net892
*1289 net893
*1290 net894
*1291 net895
*1292 net896
*1293 net897
*1294 net898
*1295 net899
*1296 net9
*1297 net90
*1298 net900
*1299 net901
*1300 net902
*1301 net903
*1302 net904
*1303 net905
*1304 net906
*1305 net907
*1306 net908
*1307 net909
*1308 net91
*1309 net910
*1310 net911
*1311 net912
*1312 net913
*1313 net914
*1314 net915
*1315 net916
*1316 net917
*1317 net918
*1318 net919
*1319 net92
*1320 net920
*1321 net921
*1322 net922
*1323 net923
*1324 net924
*1325 net925
*1326 net926
*1327 net927
*1328 net928
*1329 net929
*1330 net93
*1331 net930
*1332 net931
*1333 net932
*1334 net933
*1335 net934
*1336 net935
*1337 net936
*1338 net937
*1339 net938
*1340 net939
*1341 net94
*1342 net940
*1343 net941
*1344 net942
*1345 net943
*1346 net944
*1347 net945
*1348 net946
*1349 net947
*1350 net948
*1351 net949
*1352 net95
*1353 net950
*1354 net951
*1355 net952
*1356 net953
*1357 net954
*1358 net955
*1359 net956
*1360 net957
*1361 net958
*1362 net959
*1363 net96
*1364 net960
*1365 net961
*1366 net962
*1367 net963
*1368 net964
*1369 net965
*1370 net966
*1371 net967
*1372 net968
*1373 net969
*1374 net97
*1375 net970
*1376 net971
*1377 net972
*1378 net973
*1379 net974
*1380 net975
*1381 net976
*1382 net977
*1383 net978
*1384 net979
*1385 net98
*1386 net980
*1387 net981
*1388 net982
*1389 net983
*1390 net984
*1391 net985
*1392 net986
*1393 net987
*1394 net988
*1395 net989
*1396 net99
*1397 net990
*1398 net991
*1399 net992
*1400 net993
*1401 net994
*1402 net995
*1403 net996
*1404 net997
*1405 net998
*1406 net999
*1407 ANTENNA_1
*1408 ANTENNA_2
*1409 ANTENNA_3
*1410 ANTENNA_c100_X
*1411 ANTENNA_c102_D
*1412 ANTENNA_c103_A
*1413 ANTENNA_c103_B
*1414 ANTENNA_c103_D
*1415 ANTENNA_c105_B
*1416 ANTENNA_c106_A0
*1417 ANTENNA_c106_A2
*1418 ANTENNA_c106_S0
*1419 ANTENNA_c106_X
*1420 ANTENNA_c107_A2
*1421 ANTENNA_c107_C1
*1422 ANTENNA_c108_A1
*1423 ANTENNA_c109_A1
*1424 ANTENNA_c109_A2
*1425 ANTENNA_c109_S1
*1426 ANTENNA_c109_X
*1427 ANTENNA_c111_B_N
*1428 ANTENNA_c113_X
*1429 ANTENNA_c114_B
*1430 ANTENNA_c115_A
*1431 ANTENNA_c115_B
*1432 ANTENNA_c115_X
*1433 ANTENNA_c116_A_N
*1434 ANTENNA_c117_B_N
*1435 ANTENNA_c119_A2
*1436 ANTENNA_c119_B1
*1437 ANTENNA_c120_CLK_N
*1438 ANTENNA_c120_SCE
*1439 ANTENNA_c120_SET_B
*1440 ANTENNA_c121_CLK_N
*1441 ANTENNA_c121_SCD
*1442 ANTENNA_c121_SCE
*1443 ANTENNA_c124_C
*1444 ANTENNA_c124_D
*1445 ANTENNA_c126_A2
*1446 ANTENNA_c129_A1
*1447 ANTENNA_c129_A3
*1448 ANTENNA_c130_D1
*1449 ANTENNA_c131_A2
*1450 ANTENNA_c132_A_N
*1451 ANTENNA_c132_B
*1452 ANTENNA_c132_C
*1453 ANTENNA_c132_X
*1454 ANTENNA_c133_A
*1455 ANTENNA_c134_B
*1456 ANTENNA_c135_A1
*1457 ANTENNA_c135_A2
*1458 ANTENNA_c135_C1
*1459 ANTENNA_c135_Y
*1460 ANTENNA_c136_A
*1461 ANTENNA_c137_B
*1462 ANTENNA_c138_A
*1463 ANTENNA_c139_B
*1464 ANTENNA_c140_C
*1465 ANTENNA_c140_Y
*1466 ANTENNA_c142_X
*1467 ANTENNA_c147_X
*1468 ANTENNA_c148_Y
*1469 ANTENNA_c149_X
*1470 ANTENNA_c150_A0
*1471 ANTENNA_c150_A1
*1472 ANTENNA_c150_A2
*1473 ANTENNA_c150_S0
*1474 ANTENNA_c150_S1
*1475 ANTENNA_c151_A2
*1476 ANTENNA_c151_S0
*1477 ANTENNA_c151_S1
*1478 ANTENNA_c151_X
*1479 ANTENNA_c152_A3
*1480 ANTENNA_c152_S0
*1481 ANTENNA_c152_S1
*1482 ANTENNA_c152_X
*1483 ANTENNA_c153_A0
*1484 ANTENNA_c153_A1
*1485 ANTENNA_c153_A3
*1486 ANTENNA_c154_B
*1487 ANTENNA_c154_X
*1488 ANTENNA_c155_B
*1489 ANTENNA_c155_C
*1490 ANTENNA_c156_C
*1491 ANTENNA_c157_C
*1492 ANTENNA_c158_A2
*1493 ANTENNA_c158_B1
*1494 ANTENNA_c158_C1
*1495 ANTENNA_c160_X
*1496 ANTENNA_c161_A_N
*1497 ANTENNA_c161_B
*1498 ANTENNA_c161_C
*1499 ANTENNA_c161_X
*1500 ANTENNA_c162_A_N
*1501 ANTENNA_c162_C
*1502 ANTENNA_c163_B
*1503 ANTENNA_c163_Y
*1504 ANTENNA_c164_A_N
*1505 ANTENNA_c164_C
*1506 ANTENNA_c164_Y
*1507 ANTENNA_c165_A
*1508 ANTENNA_c168_A
*1509 ANTENNA_c168_B
*1510 ANTENNA_c169_C1
*1511 ANTENNA_c169_X
*1512 ANTENNA_c170_CLK
*1513 ANTENNA_c170_Q
*1514 ANTENNA_c170_Q_N
*1515 ANTENNA_c170_SCE
*1516 ANTENNA_c171_B
*1517 ANTENNA_c171_C
*1518 ANTENNA_c172_A2
*1519 ANTENNA_c172_D1
*1520 ANTENNA_c173_A2
*1521 ANTENNA_c173_D1
*1522 ANTENNA_c174_A3
*1523 ANTENNA_c175_A0
*1524 ANTENNA_c175_A2
*1525 ANTENNA_c175_S1
*1526 ANTENNA_c177_A
*1527 ANTENNA_c177_Y
*1528 ANTENNA_c178_B_N
*1529 ANTENNA_c178_X
*1530 ANTENNA_c179_B
*1531 ANTENNA_c180_C
*1532 ANTENNA_c181_B
*1533 ANTENNA_c181_D
*1534 ANTENNA_c182_B
*1535 ANTENNA_c183_CLK
*1536 ANTENNA_c183_Q
*1537 ANTENNA_c183_Q_N
*1538 ANTENNA_c183_SCD
*1539 ANTENNA_c184_B
*1540 ANTENNA_c185_A
*1541 ANTENNA_c186_A
*1542 ANTENNA_c186_B
*1543 ANTENNA_c188_A1
*1544 ANTENNA_c188_A3
*1545 ANTENNA_c189_A2
*1546 ANTENNA_c189_B1
*1547 ANTENNA_c189_C1
*1548 ANTENNA_c190_C
*1549 ANTENNA_c191_A1
*1550 ANTENNA_c191_S0
*1551 ANTENNA_c192_C
*1552 ANTENNA_c192_D
*1553 ANTENNA_c193_A0
*1554 ANTENNA_c194_S1
*1555 ANTENNA_c196_S0
*1556 ANTENNA_c197_CLK
*1557 ANTENNA_c197_Q
*1558 ANTENNA_c197_Q_N
*1559 ANTENNA_c197_RESET_B
*1560 ANTENNA_c199_B
*1561 ANTENNA_c199_Y
*1562 ANTENNA_c200_CLK_N
*1563 ANTENNA_c200_D
*1564 ANTENNA_c200_RESET_B
*1565 ANTENNA_c200_SCD
*1566 ANTENNA_c200_SCE
*1567 ANTENNA_c201_C
*1568 ANTENNA_c202_A
*1569 ANTENNA_c202_C
*1570 ANTENNA_c203_B
*1571 ANTENNA_c203_C_N
*1572 ANTENNA_c203_Y
*1573 ANTENNA_c205_X
*1574 ANTENNA_c207_A_N
*1575 ANTENNA_c207_B
*1576 ANTENNA_c207_C
*1577 ANTENNA_c208_A3
*1578 ANTENNA_c208_S0
*1579 ANTENNA_c209_A2
*1580 ANTENNA_c209_S0
*1581 ANTENNA_c210_A2
*1582 ANTENNA_c210_A3
*1583 ANTENNA_c210_X
*1584 ANTENNA_c211_A
*1585 ANTENNA_c211_B
*1586 ANTENNA_c213_A2
*1587 ANTENNA_c213_X
*1588 ANTENNA_c214_A3
*1589 ANTENNA_c216_C1
*1590 ANTENNA_c216_D1
*1591 ANTENNA_c217_Y
*1592 ANTENNA_c218_A3
*1593 ANTENNA_c218_S0
*1594 ANTENNA_c218_S1
*1595 ANTENNA_c219_A0
*1596 ANTENNA_c219_A3
*1597 ANTENNA_c222_X
*1598 ANTENNA_c223_A
*1599 ANTENNA_c223_B
*1600 ANTENNA_c224_C_N
*1601 ANTENNA_c225_B
*1602 ANTENNA_c225_X
*1603 ANTENNA_c226_B
*1604 ANTENNA_c226_C
*1605 ANTENNA_c228_X
*1606 ANTENNA_c229_A0
*1607 ANTENNA_c229_A1
*1608 ANTENNA_c229_A2
*1609 ANTENNA_c229_S0
*1610 ANTENNA_c229_S1
*1611 ANTENNA_c231_B
*1612 ANTENNA_c231_C
*1613 ANTENNA_c232_C
*1614 ANTENNA_c233_C
*1615 ANTENNA_c233_D
*1616 ANTENNA_c234_X
*1617 ANTENNA_c235_B
*1618 ANTENNA_c235_X
*1619 ANTENNA_c236_CLK_N
*1620 ANTENNA_c236_D
*1621 ANTENNA_c236_SET_B
*1622 ANTENNA_c237_A1
*1623 ANTENNA_c237_A3
*1624 ANTENNA_c237_S0
*1625 ANTENNA_c238_A1
*1626 ANTENNA_c238_A2
*1627 ANTENNA_c238_S0
*1628 ANTENNA_c239_A1
*1629 ANTENNA_c240_A0
*1630 ANTENNA_c240_A1
*1631 ANTENNA_c240_A2
*1632 ANTENNA_c241_A1
*1633 ANTENNA_c241_A2
*1634 ANTENNA_c242_B
*1635 ANTENNA_c244_A1
*1636 ANTENNA_c244_B1
*1637 ANTENNA_c244_C1
*1638 ANTENNA_c248_A_N
*1639 ANTENNA_c248_C
*1640 ANTENNA_c250_CLK_N
*1641 ANTENNA_c250_RESET_B
*1642 ANTENNA_c250_SCD
*1643 ANTENNA_c250_SCE
*1644 ANTENNA_c252_A2
*1645 ANTENNA_c252_B1
*1646 ANTENNA_c253_A
*1647 ANTENNA_c253_B_N
*1648 ANTENNA_c254_A2
*1649 ANTENNA_c256_C1
*1650 ANTENNA_c258_C1
*1651 ANTENNA_c259_B
*1652 ANTENNA_c260_A2
*1653 ANTENNA_c261_CLK
*1654 ANTENNA_c261_SET_B
*1655 ANTENNA_c262_D1
*1656 ANTENNA_c263_D1
*1657 ANTENNA_c264_B
*1658 ANTENNA_c265_X
*1659 ANTENNA_c266_X
*1660 ANTENNA_c268_B_N
*1661 ANTENNA_c269_B
*1662 ANTENNA_c270_A_N
*1663 ANTENNA_c271_A1
*1664 ANTENNA_c271_A2
*1665 ANTENNA_c271_C1
*1666 ANTENNA_c274_X
*1667 ANTENNA_c276_A
*1668 ANTENNA_c276_X
*1669 ANTENNA_c278_A2
*1670 ANTENNA_c278_D1
*1671 ANTENNA_c279_B1
*1672 ANTENNA_c279_D1
*1673 ANTENNA_c280_SCE
*1674 ANTENNA_c281_B
*1675 ANTENNA_c281_X
*1676 ANTENNA_c282_A2
*1677 ANTENNA_c282_A3
*1678 ANTENNA_c282_S0
*1679 ANTENNA_c282_S1
*1680 ANTENNA_c283_A0
*1681 ANTENNA_c283_A3
*1682 ANTENNA_c283_S0
*1683 ANTENNA_c284_A1
*1684 ANTENNA_c284_A2
*1685 ANTENNA_c284_S1
*1686 ANTENNA_c285_RESET_B
*1687 ANTENNA_c285_SCE
*1688 ANTENNA_c286_B
*1689 ANTENNA_c287_A
*1690 ANTENNA_c287_Y
*1691 ANTENNA_c288_A_N
*1692 ANTENNA_c288_B
*1693 ANTENNA_c289_B
*1694 ANTENNA_c289_X
*1695 ANTENNA_c292_A2
*1696 ANTENNA_c292_B1
*1697 ANTENNA_c292_C1
*1698 ANTENNA_c292_D1
*1699 ANTENNA_c293_A
*1700 ANTENNA_c293_C_N
*1701 ANTENNA_c297_X
*1702 ANTENNA_c298_A
*1703 ANTENNA_c300_B1
*1704 ANTENNA_c300_C1
*1705 ANTENNA_c300_D1
*1706 ANTENNA_c300_X
*1707 ANTENNA_c301_A1
*1708 ANTENNA_c301_C1
*1709 ANTENNA_c302_A1
*1710 ANTENNA_c302_A2
*1711 ANTENNA_c302_S0
*1712 ANTENNA_c302_S1
*1713 ANTENNA_c302_X
*1714 ANTENNA_c303_Y
*1715 ANTENNA_c304_A2
*1716 ANTENNA_c304_A3
*1717 ANTENNA_c304_S0
*1718 ANTENNA_c304_S1
*1719 ANTENNA_c305_A1
*1720 ANTENNA_c305_B1
*1721 ANTENNA_c305_D1
*1722 ANTENNA_c305_X
*1723 ANTENNA_c306_A2
*1724 ANTENNA_c306_B1
*1725 ANTENNA_c306_C1
*1726 ANTENNA_c306_D1
*1727 ANTENNA_c307_A0
*1728 ANTENNA_c307_A2
*1729 ANTENNA_c307_A3
*1730 ANTENNA_c307_S0
*1731 ANTENNA_c307_S1
*1732 ANTENNA_c308_A
*1733 ANTENNA_c308_X
*1734 ANTENNA_c310_A_N
*1735 ANTENNA_c310_C
*1736 ANTENNA_c310_D
*1737 ANTENNA_c310_X
*1738 ANTENNA_c312_X
*1739 ANTENNA_c313_A2
*1740 ANTENNA_c313_B1
*1741 ANTENNA_c313_D1
*1742 ANTENNA_c314_A
*1743 ANTENNA_c314_B
*1744 ANTENNA_c314_D_N
*1745 ANTENNA_c315_A
*1746 ANTENNA_c315_B
*1747 ANTENNA_c316_B
*1748 ANTENNA_c316_C
*1749 ANTENNA_c316_D
*1750 ANTENNA_c316_Y
*1751 ANTENNA_c318_A_N
*1752 ANTENNA_c318_X
*1753 ANTENNA_c319_A
*1754 ANTENNA_c320_B_N
*1755 ANTENNA_c320_C
*1756 ANTENNA_c320_D
*1757 ANTENNA_c321_B
*1758 ANTENNA_c321_C
*1759 ANTENNA_c321_D_N
*1760 ANTENNA_c322_CLK
*1761 ANTENNA_c322_Q
*1762 ANTENNA_c322_RESET_B
*1763 ANTENNA_c322_SCE
*1764 ANTENNA_c323_A1
*1765 ANTENNA_c323_A2
*1766 ANTENNA_c323_A3
*1767 ANTENNA_c323_S0
*1768 ANTENNA_c323_S1
*1769 ANTENNA_c324_B
*1770 ANTENNA_c324_D
*1771 ANTENNA_c325_CLK
*1772 ANTENNA_c325_RESET_B
*1773 ANTENNA_c325_SCD
*1774 ANTENNA_c325_SCE
*1775 ANTENNA_c326_CLK
*1776 ANTENNA_c326_D
*1777 ANTENNA_c328_CLK_N
*1778 ANTENNA_c328_D
*1779 ANTENNA_c328_SCE
*1780 ANTENNA_c328_SET_B
*1781 ANTENNA_c329_A3
*1782 ANTENNA_c329_S0
*1783 ANTENNA_c329_S1
*1784 ANTENNA_c330_A
*1785 ANTENNA_c330_C
*1786 ANTENNA_c331_B
*1787 ANTENNA_c332_B
*1788 ANTENNA_c332_C
*1789 ANTENNA_c332_X
*1790 ANTENNA_c334_X
*1791 ANTENNA_c335_B
*1792 ANTENNA_c335_C
*1793 ANTENNA_c335_X
*1794 ANTENNA_c337_C_N
*1795 ANTENNA_c338_A2
*1796 ANTENNA_c338_A3
*1797 ANTENNA_c338_S1
*1798 ANTENNA_c339_A1
*1799 ANTENNA_c339_A2
*1800 ANTENNA_c339_A3
*1801 ANTENNA_c339_S0
*1802 ANTENNA_c340_A2
*1803 ANTENNA_c340_B1
*1804 ANTENNA_c341_A_N
*1805 ANTENNA_c341_Y
*1806 ANTENNA_c342_B
*1807 ANTENNA_c343_A2
*1808 ANTENNA_c343_A3
*1809 ANTENNA_c343_S0
*1810 ANTENNA_c344_C1
*1811 ANTENNA_c345_X
*1812 ANTENNA_c346_CLK
*1813 ANTENNA_c346_RESET_B
*1814 ANTENNA_c346_SCD
*1815 ANTENNA_c346_SCE
*1816 ANTENNA_c347_A1
*1817 ANTENNA_c347_A2
*1818 ANTENNA_c349_B1
*1819 ANTENNA_c349_C1
*1820 ANTENNA_c350_A2
*1821 ANTENNA_c350_A3
*1822 ANTENNA_c351_A3
*1823 ANTENNA_c354_CLK
*1824 ANTENNA_c354_SCD
*1825 ANTENNA_c355_B
*1826 ANTENNA_c355_C
*1827 ANTENNA_c355_D
*1828 ANTENNA_c356_B
*1829 ANTENNA_c356_C
*1830 ANTENNA_c356_D_N
*1831 ANTENNA_c357_B
*1832 ANTENNA_c357_D