*SPEF "ieee 1481-1999"
*DESIGN "netlist_0"
*DATE "22:27:46 Friday July 19, 2024"
*VENDOR "The OpenROAD Project"
*PROGRAM "OpenROAD"
*VERSION "d423155d69de7f683a23f6916ead418a615ad4ad"
*DESIGN_FLOW "NAME_SCOPE LOCAL" "PIN_CAP NONE"
*DIVIDER /
*DELIMITER :
*BUS_DELIMITER []
*T_UNIT 1 NS
*C_UNIT 1 PF
*R_UNIT 1 OHM
*L_UNIT 1 HENRY

*NAME_MAP
*3 clk
*4 in0
*5 in1
*6 in10
*7 in11
*8 in12
*9 in13
*10 in14
*11 in15
*12 in16
*13 in17
*14 in18
*15 in19
*16 in2
*17 in20
*18 in21
*19 in22
*20 in23
*21 in24
*22 in25
*23 in26
*24 in27
*25 in28
*26 in29
*27 in3
*28 in30
*29 in31
*30 in32
*31 in33
*32 in34
*33 in35
*34 in36
*35 in37
*36 in38
*37 in39
*38 in4
*39 in40
*40 in41
*41 in42
*42 in43
*43 in44
*44 in45
*45 in46
*46 in47
*47 in48
*48 in49
*49 in5
*50 in50
*51 in51
*52 in52
*53 in53
*54 in54
*55 in55
*56 in56
*57 in57
*58 in58
*59 in59
*60 in6
*61 in60
*62 in61
*63 in7
*64 in8
*65 in9
*66 out0
*67 out1
*68 out10
*69 out11
*70 out12
*71 out13
*72 out14
*73 out15
*74 out16
*75 out17
*76 out18
*77 out19
*78 out2
*79 out20
*80 out21
*81 out22
*82 out23
*83 out24
*84 out25
*85 out26
*86 out27
*87 out28
*88 out29
*89 out3
*90 out30
*91 out31
*92 out32
*93 out33
*94 out34
*95 out35
*96 out36
*97 out37
*98 out38
*99 out39
*100 out4
*101 out40
*102 out41
*103 out42
*104 out43
*105 out44
*106 out45
*107 out46
*108 out47
*109 out48
*110 out49
*111 out5
*112 out50
*113 out51
*114 out52
*115 out53
*116 out54
*117 out55
*118 out56
*119 out57
*120 out58
*121 out59
*122 out6
*123 out60
*124 out61
*125 out7
*126 out8
*127 out9
*128 rst
*129 clknet_0_clk
*130 clknet_0_net187
*131 clknet_0_net188
*132 clknet_0_net189
*133 clknet_0_net190
*134 clknet_0_net191
*135 clknet_0_net195
*136 clknet_0_net196
*137 clknet_0_net197
*138 clknet_0_net198
*139 clknet_0_net199
*140 clknet_0_net200
*141 clknet_0_net201
*142 clknet_0_net202
*143 clknet_0_net203
*144 clknet_0_net204
*145 clknet_0_net231
*146 clknet_0_net232
*147 clknet_0_net233
*148 clknet_0_net235
*149 clknet_0_net238
*150 clknet_0_net246
*151 clknet_0_net247
*152 clknet_0_net271
*153 clknet_0_net339
*154 clknet_0_net340
*155 clknet_0_net345
*156 clknet_0_net348
*157 clknet_0_net349
*158 clknet_0_net350
*159 clknet_0_net351
*160 clknet_0_net353
*161 clknet_0_net354
*162 clknet_0_net356
*163 clknet_0_net357
*164 clknet_0_net358
*165 clknet_0_net360
*166 clknet_0_net361
*167 clknet_0_net362
*168 clknet_0_net451
*169 clknet_0_net452
*170 clknet_0_net453
*171 clknet_0_net471
*172 clknet_0_net473
*173 clknet_0_net576
*174 clknet_0_net577
*175 clknet_0_net581
*176 clknet_0_net582
*177 clknet_0_net583
*178 clknet_0_net587
*179 clknet_0_net589
*180 clknet_0_net590
*181 clknet_0_net594
*182 clknet_0_net595
*183 clknet_0_net596
*184 clknet_0_net597
*185 clknet_0_net598
*186 clknet_0_net600
*187 clknet_0_net601
*188 clknet_0_net708
*189 clknet_0_net730
*190 clknet_0_net756
*191 clknet_0_net757
*192 clknet_0_net758
*193 clknet_0_net776
*194 clknet_0_net777
*195 clknet_0_net778
*196 clknet_0_net796
*197 clknet_0_net797
*198 clknet_0_net798
*199 clknet_0_net815
*200 clknet_0_net816
*201 clknet_0_net817
*202 clknet_0_net901
*203 clknet_0_net906
*204 clknet_0_net912
*205 clknet_0_net913
*206 clknet_0_net914
*207 clknet_1_0__leaf_net187
*208 clknet_1_0__leaf_net188
*209 clknet_1_0__leaf_net189
*210 clknet_1_0__leaf_net190
*211 clknet_1_0__leaf_net191
*212 clknet_1_0__leaf_net195
*213 clknet_1_0__leaf_net196
*214 clknet_1_0__leaf_net197
*215 clknet_1_0__leaf_net198
*216 clknet_1_0__leaf_net199
*217 clknet_1_0__leaf_net200
*218 clknet_1_0__leaf_net201
*219 clknet_1_0__leaf_net202
*220 clknet_1_0__leaf_net203
*221 clknet_1_0__leaf_net204
*222 clknet_1_0__leaf_net231
*223 clknet_1_0__leaf_net232
*224 clknet_1_0__leaf_net233
*225 clknet_1_0__leaf_net235
*226 clknet_1_0__leaf_net238
*227 clknet_1_0__leaf_net246
*228 clknet_1_0__leaf_net247
*229 clknet_1_0__leaf_net271
*230 clknet_1_0__leaf_net339
*231 clknet_1_0__leaf_net340
*232 clknet_1_0__leaf_net345
*233 clknet_1_0__leaf_net348
*234 clknet_1_0__leaf_net349
*235 clknet_1_0__leaf_net350
*236 clknet_1_0__leaf_net351
*237 clknet_1_0__leaf_net353
*238 clknet_1_0__leaf_net354
*239 clknet_1_0__leaf_net356
*240 clknet_1_0__leaf_net357
*241 clknet_1_0__leaf_net358
*242 clknet_1_0__leaf_net360
*243 clknet_1_0__leaf_net361
*244 clknet_1_0__leaf_net362
*245 clknet_1_0__leaf_net451
*246 clknet_1_0__leaf_net452
*247 clknet_1_0__leaf_net453
*248 clknet_1_0__leaf_net471
*249 clknet_1_0__leaf_net473
*250 clknet_1_0__leaf_net576
*251 clknet_1_0__leaf_net577
*252 clknet_1_0__leaf_net581
*253 clknet_1_0__leaf_net582
*254 clknet_1_0__leaf_net583
*255 clknet_1_0__leaf_net587
*256 clknet_1_0__leaf_net589
*257 clknet_1_0__leaf_net590
*258 clknet_1_0__leaf_net594
*259 clknet_1_0__leaf_net595
*260 clknet_1_0__leaf_net596
*261 clknet_1_0__leaf_net597
*262 clknet_1_0__leaf_net598
*263 clknet_1_0__leaf_net600
*264 clknet_1_0__leaf_net601
*265 clknet_1_0__leaf_net708
*266 clknet_1_0__leaf_net730
*267 clknet_1_0__leaf_net756
*268 clknet_1_0__leaf_net757
*269 clknet_1_0__leaf_net758
*270 clknet_1_0__leaf_net776
*271 clknet_1_0__leaf_net777
*272 clknet_1_0__leaf_net778
*273 clknet_1_0__leaf_net796
*274 clknet_1_0__leaf_net797
*275 clknet_1_0__leaf_net798
*276 clknet_1_0__leaf_net815
*277 clknet_1_0__leaf_net816
*278 clknet_1_0__leaf_net817
*279 clknet_1_0__leaf_net901
*280 clknet_1_0__leaf_net906
*281 clknet_1_0__leaf_net912
*282 clknet_1_0__leaf_net913
*283 clknet_1_0__leaf_net914
*284 clknet_1_1__leaf_net187
*285 clknet_1_1__leaf_net188
*286 clknet_1_1__leaf_net189
*287 clknet_1_1__leaf_net190
*288 clknet_1_1__leaf_net191
*289 clknet_1_1__leaf_net195
*290 clknet_1_1__leaf_net196
*291 clknet_1_1__leaf_net197
*292 clknet_1_1__leaf_net198
*293 clknet_1_1__leaf_net199
*294 clknet_1_1__leaf_net200
*295 clknet_1_1__leaf_net201
*296 clknet_1_1__leaf_net202
*297 clknet_1_1__leaf_net203
*298 clknet_1_1__leaf_net204
*299 clknet_1_1__leaf_net231
*300 clknet_1_1__leaf_net232
*301 clknet_1_1__leaf_net233
*302 clknet_1_1__leaf_net235
*303 clknet_1_1__leaf_net238
*304 clknet_1_1__leaf_net246
*305 clknet_1_1__leaf_net247
*306 clknet_1_1__leaf_net271
*307 clknet_1_1__leaf_net339
*308 clknet_1_1__leaf_net340
*309 clknet_1_1__leaf_net345
*310 clknet_1_1__leaf_net348
*311 clknet_1_1__leaf_net349
*312 clknet_1_1__leaf_net350
*313 clknet_1_1__leaf_net351
*314 clknet_1_1__leaf_net353
*315 clknet_1_1__leaf_net354
*316 clknet_1_1__leaf_net356
*317 clknet_1_1__leaf_net357
*318 clknet_1_1__leaf_net358
*319 clknet_1_1__leaf_net360
*320 clknet_1_1__leaf_net361
*321 clknet_1_1__leaf_net362
*322 clknet_1_1__leaf_net451
*323 clknet_1_1__leaf_net452
*324 clknet_1_1__leaf_net453
*325 clknet_1_1__leaf_net471
*326 clknet_1_1__leaf_net473
*327 clknet_1_1__leaf_net576
*328 clknet_1_1__leaf_net577
*329 clknet_1_1__leaf_net581
*330 clknet_1_1__leaf_net582
*331 clknet_1_1__leaf_net583
*332 clknet_1_1__leaf_net587
*333 clknet_1_1__leaf_net589
*334 clknet_1_1__leaf_net590
*335 clknet_1_1__leaf_net594
*336 clknet_1_1__leaf_net595
*337 clknet_1_1__leaf_net596
*338 clknet_1_1__leaf_net597
*339 clknet_1_1__leaf_net598
*340 clknet_1_1__leaf_net600
*341 clknet_1_1__leaf_net601
*342 clknet_1_1__leaf_net708
*343 clknet_1_1__leaf_net730
*344 clknet_1_1__leaf_net756
*345 clknet_1_1__leaf_net757
*346 clknet_1_1__leaf_net758
*347 clknet_1_1__leaf_net776
*348 clknet_1_1__leaf_net777
*349 clknet_1_1__leaf_net778
*350 clknet_1_1__leaf_net796
*351 clknet_1_1__leaf_net797
*352 clknet_1_1__leaf_net798
*353 clknet_1_1__leaf_net815
*354 clknet_1_1__leaf_net816
*355 clknet_1_1__leaf_net817
*356 clknet_1_1__leaf_net901
*357 clknet_1_1__leaf_net906
*358 clknet_1_1__leaf_net912
*359 clknet_1_1__leaf_net913
*360 clknet_1_1__leaf_net914
*361 clknet_4_0_0_clk
*362 clknet_4_10_0_clk
*363 clknet_4_11_0_clk
*364 clknet_4_12_0_clk
*365 clknet_4_13_0_clk
*366 clknet_4_14_0_clk
*367 clknet_4_15_0_clk
*368 clknet_4_1_0_clk
*369 clknet_4_2_0_clk
*370 clknet_4_3_0_clk
*371 clknet_4_4_0_clk
*372 clknet_4_5_0_clk
*373 clknet_4_6_0_clk
*374 clknet_4_7_0_clk
*375 clknet_4_8_0_clk
*376 clknet_4_9_0_clk
*377 net0
*378 net1
*379 net10
*380 net100
*381 net1000
*382 net1001
*383 net1002
*384 net1003
*385 net1004
*386 net1005
*387 net1006
*388 net101
*389 net102
*390 net103
*391 net104
*392 net105
*393 net106
*394 net107
*395 net108
*396 net109
*397 net11
*398 net110
*399 net111
*400 net112
*401 net113
*402 net114
*403 net115
*404 net116
*405 net117
*406 net118
*407 net119
*408 net12
*409 net120
*410 net121
*411 net122
*412 net123
*413 net124
*414 net125
*415 net126
*416 net127
*417 net128
*418 net129
*419 net13
*420 net130
*421 net131
*422 net132
*423 net133
*424 net134
*425 net135
*426 net136
*427 net137
*428 net138
*429 net139
*430 net14
*431 net140
*432 net141
*433 net142
*434 net143
*435 net144
*436 net145
*437 net146
*438 net147
*439 net148
*440 net149
*441 net15
*442 net150
*443 net151
*444 net152
*445 net153
*446 net154
*447 net155
*448 net156
*449 net157
*450 net158
*451 net159
*452 net16
*453 net160
*454 net161
*455 net162
*456 net163
*457 net164
*458 net165
*459 net166
*460 net167
*461 net168
*462 net169
*463 net17
*464 net170
*465 net171
*466 net172
*467 net173
*468 net174
*469 net175
*470 net176
*471 net177
*472 net178
*473 net179
*474 net18
*475 net180
*476 net181
*477 net182
*478 net183
*479 net184
*480 net185
*481 net186
*482 net187
*483 net188
*484 net189
*485 net19
*486 net190
*487 net191
*488 net192
*489 net193
*490 net194
*491 net195
*492 net196
*493 net197
*494 net198
*495 net199
*496 net2
*497 net20
*498 net200
*499 net201
*500 net202
*501 net203
*502 net204
*503 net205
*504 net206
*505 net207
*506 net208
*507 net209
*508 net21
*509 net210
*510 net211
*511 net212
*512 net213
*513 net214
*514 net215
*515 net216
*516 net217
*517 net218
*518 net219
*519 net22
*520 net220
*521 net221
*522 net222
*523 net223
*524 net224
*525 net225
*526 net226
*527 net227
*528 net228
*529 net229
*530 net23
*531 net230
*532 net231
*533 net232
*534 net233
*535 net234
*536 net235
*537 net236
*538 net237
*539 net238
*540 net239
*541 net24
*542 net240
*543 net241
*544 net242
*545 net243
*546 net244
*547 net245
*548 net246
*549 net247
*550 net248
*551 net249
*552 net25
*553 net250
*554 net251
*555 net252
*556 net253
*557 net254
*558 net255
*559 net256
*560 net257
*561 net258
*562 net259
*563 net26
*564 net260
*565 net261
*566 net262
*567 net263
*568 net264
*569 net265
*570 net266
*571 net267
*572 net268
*573 net269
*574 net27
*575 net270
*576 net271
*577 net272
*578 net273
*579 net274
*580 net275
*581 net276
*582 net277
*583 net278
*584 net279
*585 net28
*586 net280
*587 net281
*588 net282
*589 net283
*590 net284
*591 net285
*592 net286
*593 net287
*594 net288
*595 net289
*596 net29
*597 net290
*598 net291
*599 net292
*600 net293
*601 net294
*602 net295
*603 net296
*604 net297
*605 net298
*606 net299
*607 net3
*608 net30
*609 net300
*610 net301
*611 net302
*612 net303
*613 net304
*614 net305
*615 net306
*616 net307
*617 net308
*618 net309
*619 net31
*620 net310
*621 net311
*622 net312
*623 net313
*624 net314
*625 net315
*626 net316
*627 net317
*628 net318
*629 net319
*630 net32
*631 net320
*632 net321
*633 net322
*634 net323
*635 net324
*636 net325
*637 net326
*638 net327
*639 net328
*640 net329
*641 net33
*642 net330
*643 net331
*644 net332
*645 net333
*646 net334
*647 net335
*648 net336
*649 net337
*650 net338
*651 net339
*652 net34
*653 net340
*654 net341
*655 net342
*656 net343
*657 net344
*658 net345
*659 net346
*660 net347
*661 net348
*662 net349
*663 net35
*664 net350
*665 net351
*666 net352
*667 net353
*668 net354
*669 net355
*670 net356
*671 net357
*672 net358
*673 net359
*674 net36
*675 net360
*676 net361
*677 net362
*678 net363
*679 net364
*680 net365
*681 net366
*682 net367
*683 net368
*684 net369
*685 net37
*686 net370
*687 net371
*688 net372
*689 net373
*690 net374
*691 net375
*692 net376
*693 net377
*694 net378
*695 net379
*696 net38
*697 net380
*698 net381
*699 net382
*700 net383
*701 net384
*702 net385
*703 net386
*704 net387
*705 net388
*706 net389
*707 net39
*708 net390
*709 net391
*710 net392
*711 net393
*712 net394
*713 net395
*714 net396
*715 net397
*716 net398
*717 net399
*718 net4
*719 net40
*720 net400
*721 net401
*722 net402
*723 net403
*724 net404
*725 net405
*726 net406
*727 net407
*728 net408
*729 net409
*730 net41
*731 net410
*732 net411
*733 net412
*734 net413
*735 net414
*736 net415
*737 net416
*738 net417
*739 net418
*740 net419
*741 net42
*742 net420
*743 net421
*744 net422
*745 net423
*746 net424
*747 net425
*748 net426
*749 net427
*750 net428
*751 net429
*752 net43
*753 net430
*754 net431
*755 net432
*756 net433
*757 net434
*758 net435
*759 net436
*760 net437
*761 net438
*762 net439
*763 net44
*764 net440
*765 net441
*766 net442
*767 net443
*768 net444
*769 net445
*770 net446
*771 net447
*772 net448
*773 net449
*774 net45
*775 net450
*776 net451
*777 net452
*778 net453
*779 net454
*780 net455
*781 net456
*782 net457
*783 net458
*784 net459
*785 net46
*786 net460
*787 net461
*788 net462
*789 net463
*790 net464
*791 net465
*792 net466
*793 net467
*794 net468
*795 net469
*796 net47
*797 net470
*798 net471
*799 net472
*800 net473
*801 net474
*802 net475
*803 net476
*804 net477
*805 net478
*806 net479
*807 net48
*808 net480
*809 net481
*810 net482
*811 net483
*812 net484
*813 net485
*814 net486
*815 net487
*816 net488
*817 net489
*818 net49
*819 net490
*820 net491
*821 net492
*822 net493
*823 net494
*824 net495
*825 net496
*826 net497
*827 net498
*828 net499
*829 net5
*830 net50
*831 net500
*832 net501
*833 net502
*834 net503
*835 net504
*836 net505
*837 net506
*838 net507
*839 net508
*840 net509
*841 net51
*842 net510
*843 net511
*844 net512
*845 net513
*846 net514
*847 net515
*848 net516
*849 net517
*850 net518
*851 net519
*852 net52
*853 net520
*854 net521
*855 net522
*856 net523
*857 net524
*858 net525
*859 net526
*860 net527
*861 net528
*862 net529
*863 net53
*864 net530
*865 net531
*866 net532
*867 net533
*868 net534
*869 net535
*870 net536
*871 net537
*872 net538
*873 net539
*874 net54
*875 net540
*876 net541
*877 net542
*878 net543
*879 net544
*880 net545
*881 net546
*882 net547
*883 net548
*884 net549
*885 net55
*886 net550
*887 net551
*888 net552
*889 net553
*890 net554
*891 net555
*892 net556
*893 net557
*894 net558
*895 net559
*896 net56
*897 net560
*898 net561
*899 net562
*900 net563
*901 net564
*902 net565
*903 net566
*904 net567
*905 net568
*906 net569
*907 net57
*908 net570
*909 net571
*910 net572
*911 net573
*912 net574
*913 net575
*914 net576
*915 net577
*916 net578
*917 net579
*918 net58
*919 net580
*920 net581
*921 net582
*922 net583
*923 net584
*924 net585
*925 net586
*926 net587
*927 net588
*928 net589
*929 net59
*930 net590
*931 net591
*932 net592
*933 net593
*934 net594
*935 net595
*936 net596
*937 net597
*938 net598
*939 net599
*940 net6
*941 net60
*942 net600
*943 net601
*944 net602
*945 net603
*946 net604
*947 net605
*948 net606
*949 net607
*950 net608
*951 net609
*952 net61
*953 net610
*954 net611
*955 net612
*956 net613
*957 net614
*958 net615
*959 net616
*960 net617
*961 net618
*962 net619
*963 net62
*964 net620
*965 net621
*966 net622
*967 net623
*968 net624
*969 net625
*970 net626
*971 net627
*972 net628
*973 net629
*974 net63
*975 net630
*976 net631
*977 net632
*978 net633
*979 net634
*980 net635
*981 net636
*982 net637
*983 net638
*984 net639
*985 net64
*986 net640
*987 net641
*988 net642
*989 net643
*990 net644
*991 net645
*992 net646
*993 net647
*994 net648
*995 net649
*996 net65
*997 net650
*998 net651
*999 net652
*1000 net653
*1001 net654
*1002 net655
*1003 net656
*1004 net657
*1005 net658
*1006 net659
*1007 net66
*1008 net660
*1009 net661
*1010 net662
*1011 net663
*1012 net664
*1013 net665
*1014 net666
*1015 net667
*1016 net668
*1017 net669
*1018 net67
*1019 net670
*1020 net671
*1021 net672
*1022 net673
*1023 net674
*1024 net675
*1025 net676
*1026 net677
*1027 net678
*1028 net679
*1029 net68
*1030 net680
*1031 net681
*1032 net682
*1033 net683
*1034 net684
*1035 net685
*1036 net686
*1037 net687
*1038 net688
*1039 net689
*1040 net69
*1041 net690
*1042 net691
*1043 net692
*1044 net693
*1045 net694
*1046 net695
*1047 net696
*1048 net697
*1049 net698
*1050 net699
*1051 net7
*1052 net70
*1053 net700
*1054 net701
*1055 net702
*1056 net703
*1057 net704
*1058 net705
*1059 net706
*1060 net707
*1061 net708
*1062 net709
*1063 net71
*1064 net710
*1065 net711
*1066 net712
*1067 net713
*1068 net714
*1069 net715
*1070 net716
*1071 net717
*1072 net718
*1073 net719
*1074 net72
*1075 net720
*1076 net721
*1077 net722
*1078 net723
*1079 net724
*1080 net725
*1081 net726
*1082 net727
*1083 net728
*1084 net729
*1085 net73
*1086 net730
*1087 net731
*1088 net732
*1089 net733
*1090 net734
*1091 net735
*1092 net736
*1093 net737
*1094 net738
*1095 net739
*1096 net74
*1097 net740
*1098 net741
*1099 net742
*1100 net743
*1101 net744
*1102 net745
*1103 net746
*1104 net747
*1105 net748
*1106 net749
*1107 net75
*1108 net750
*1109 net751
*1110 net752
*1111 net753
*1112 net754
*1113 net755
*1114 net756
*1115 net757
*1116 net758
*1117 net759
*1118 net76
*1119 net760
*1120 net761
*1121 net762
*1122 net763
*1123 net764
*1124 net765
*1125 net766
*1126 net767
*1127 net768
*1128 net769
*1129 net77
*1130 net770
*1131 net771
*1132 net772
*1133 net773
*1134 net774
*1135 net775
*1136 net776
*1137 net777
*1138 net778
*1139 net779
*1140 net78
*1141 net780
*1142 net781
*1143 net782
*1144 net783
*1145 net784
*1146 net785
*1147 net786
*1148 net787
*1149 net788
*1150 net789
*1151 net79
*1152 net790
*1153 net791
*1154 net792
*1155 net793
*1156 net794
*1157 net795
*1158 net796
*1159 net797
*1160 net798
*1161 net799
*1162 net8
*1163 net80
*1164 net800
*1165 net801
*1166 net802
*1167 net803
*1168 net804
*1169 net805
*1170 net806
*1171 net807
*1172 net808
*1173 net809
*1174 net81
*1175 net810
*1176 net811
*1177 net812
*1178 net813
*1179 net814
*1180 net815
*1181 net816
*1182 net817
*1183 net818
*1184 net819
*1185 net82
*1186 net820
*1187 net821
*1188 net822
*1189 net823
*1190 net824
*1191 net825
*1192 net826
*1193 net827
*1194 net828
*1195 net829
*1196 net83
*1197 net830
*1198 net831
*1199 net832
*1200 net833
*1201 net834
*1202 net835
*1203 net836
*1204 net837
*1205 net838
*1206 net839
*1207 net84
*1208 net840
*1209 net841
*1210 net842
*1211 net843
*1212 net844
*1213 net845
*1214 net846
*1215 net847
*1216 net848
*1217 net849
*1218 net85
*1219 net850
*1220 net851
*1221 net852
*1222 net853
*1223 net854
*1224 net855
*1225 net856
*1226 net857
*1227 net858
*1228 net859
*1229 net86
*1230 net860
*1231 net861
*1232 net862
*1233 net863
*1234 net864
*1235 net865
*1236 net866
*1237 net867
*1238 net868
*1239 net869
*1240 net87
*1241 net870
*1242 net871
*1243 net872
*1244 net873
*1245 net874
*1246 net875
*1247 net876
*1248 net877
*1249 net878
*1250 net879
*1251 net88
*1252 net880
*1253 net881
*1254 net882
*1255 net883
*1256 net884
*1257 net885
*1258 net886
*1259 net887
*1260 net888
*1261 net889
*1262 net89
*1263 net890
*1264 net891
*1265 net892
*1266 net893
*1267 net894
*1268 net895
*1269 net896
*1270 net897
*1271 net898
*1272 net899
*1273 net9
*1274 net90
*1275 net900
*1276 net901
*1277 net902
*1278 net903
*1279 net904
*1280 net905
*1281 net906
*1282 net907
*1283 net908
*1284 net909
*1285 net91
*1286 net910
*1287 net911
*1288 net912
*1289 net913
*1290 net914
*1291 net915
*1292 net916
*1293 net917
*1294 net918
*1295 net919
*1296 net92
*1297 net920
*1298 net921
*1299 net922
*1300 net923
*1301 net924
*1302 net925
*1303 net926
*1304 net927
*1305 net928
*1306 net929
*1307 net93
*1308 net930
*1309 net931
*1310 net932
*1311 net933
*1312 net934
*1313 net935
*1314 net936
*1315 net937
*1316 net938
*1317 net939
*1318 net94
*1319 net940
*1320 net941
*1321 net942
*1322 net943
*1323 net944
*1324 net945
*1325 net946
*1326 net947
*1327 net948
*1328 net949
*1329 net95
*1330 net950
*1331 net951
*1332 net952
*1333 net953
*1334 net954
*1335 net955
*1336 net956
*1337 net957
*1338 net958
*1339 net959
*1340 net96
*1341 net960
*1342 net961
*1343 net962
*1344 net963
*1345 net964
*1346 net965
*1347 net966
*1348 net967
*1349 net968
*1350 net969
*1351 net97
*1352 net970
*1353 net971
*1354 net972
*1355 net973
*1356 net974
*1357 net975
*1358 net976
*1359 net977
*1360 net978
*1361 net979
*1362 net98
*1363 net980
*1364 net981
*1365 net982
*1366 net983
*1367 net984
*1368 net985
*1369 net986
*1370 net987
*1371 net988
*1372 net989
*1373 net99
*1374 net990
*1375 net991
*1376 net992
*1377 net993
*1378 net994
*1379 net995
*1380 net996
*1381 net997
*1382 net998
*1383 net999
*1384 ANTENNA_1
*1385 ANTENNA_2
*1386 ANTENNA_3
*1387 ANTENNA_c112_B_N
*1388 ANTENNA_c113_D_N
*1389 ANTENNA_c115_X
*1390 ANTENNA_c118_C_N
*1391 ANTENNA_c118_X
*1392 ANTENNA_c119_Y
*1393 ANTENNA_c121_B
*1394 ANTENNA_c122_A
*1395 ANTENNA_c123_D_N
*1396 ANTENNA_c124_A2
*1397 ANTENNA_c124_C1
*1398 ANTENNA_c125_A2
*1399 ANTENNA_c125_A3
*1400 ANTENNA_c126_A0
*1401 ANTENNA_c127_A2
*1402 ANTENNA_c129_CLK
*1403 ANTENNA_c129_RESET_B
*1404 ANTENNA_c129_SET_B
*1405 ANTENNA_c137_X
*1406 ANTENNA_c138_B
*1407 ANTENNA_c140_D1
*1408 ANTENNA_c141_B
*1409 ANTENNA_c146_X
*1410 ANTENNA_c148_A1
*1411 ANTENNA_c149_A1
*1412 ANTENNA_c149_S1
*1413 ANTENNA_c151_X
*1414 ANTENNA_c152_S0
*1415 ANTENNA_c153_A3
*1416 ANTENNA_c154_B
*1417 ANTENNA_c161_A
*1418 ANTENNA_c167_A1
*1419 ANTENNA_c169_S0
*1420 ANTENNA_c169_X
*1421 ANTENNA_c170_CLK_N
*1422 ANTENNA_c170_RESET_B
*1423 ANTENNA_c171_S1
*1424 ANTENNA_c172_B1
*1425 ANTENNA_c174_S0
*1426 ANTENNA_c175_A1
*1427 ANTENNA_c176_X
*1428 ANTENNA_c177_A
*1429 ANTENNA_c177_B
*1430 ANTENNA_c183_B
*1431 ANTENNA_c185_A
*1432 ANTENNA_c190_D1
*1433 ANTENNA_c191_D1
*1434 ANTENNA_c194_S0
*1435 ANTENNA_c208_SCE
*1436 ANTENNA_c220_A
*1437 ANTENNA_c226_X
*1438 ANTENNA_c232_A2
*1439 ANTENNA_c234_S1
*1440 ANTENNA_c240_X
*1441 ANTENNA_c241_A1
*1442 ANTENNA_c244_A
*1443 ANTENNA_c250_C1
*1444 ANTENNA_c264_A
*1445 ANTENNA_c264_Y
*1446 ANTENNA_c265_A
*1447 ANTENNA_c265_B
*1448 ANTENNA_c266_B
*1449 ANTENNA_c270_CLK
*1450 ANTENNA_c270_RESET_B
*1451 ANTENNA_c273_CLK
*1452 ANTENNA_c275_A0
*1453 ANTENNA_c280_Y
*1454 ANTENNA_c281_S0
*1455 ANTENNA_c282_S0
*1456 ANTENNA_c282_S1
*1457 ANTENNA_c284_A1
*1458 ANTENNA_c286_A_N
*1459 ANTENNA_c293_C1
*1460 ANTENNA_c296_A
*1461 ANTENNA_c297_CLK_N
*1462 ANTENNA_c298_A0
*1463 ANTENNA_c298_A3
*1464 ANTENNA_c302_CLK
*1465 ANTENNA_c304_S1
*1466 ANTENNA_c305_CLK_N
*1467 ANTENNA_c305_SCD
*1468 ANTENNA_c305_SCE
*1469 ANTENNA_c307_CLK_N
*1470 ANTENNA_c310_A
*1471 ANTENNA_c329_X
*1472 ANTENNA_c330_B
*1473 ANTENNA_c332_B
*1474 ANTENNA_c337_A
*1475 ANTENNA_c349_A3
*1476 ANTENNA_c352_A
*1477 ANTENNA_c357_B_N
*1478 ANTENNA_c368_B1
*1479 ANTENNA_c370_A3
*1480 ANTENNA_c373_X
*1481 ANTENNA_c392_B_N
*1482 ANTENNA_c395_CLK
*1483 ANTENNA_c396_A
*1484 ANTENNA_c397_B_N
*1485 ANTENNA_c400_B
*1486 ANTENNA_c402_A
*1487 ANTENNA_c403_S1
*1488 ANTENNA_c407_CLK
*1489 ANTENNA_c440_B
*1490 ANTENNA_c441_B_N
*1491 ANTENNA_c441_X
*1492 ANTENNA_c443_X
*1493 ANTENNA_c446_CLK_N
*1494 ANTENNA_c446_SCE
*1495 ANTENNA_c446_SET_B
*1496 ANTENNA_c447_A
*1497 ANTENNA_c447_C_N
*1498 ANTENNA_c447_D_N
*1499 ANTENNA_c450_RESET_B
*1500 ANTENNA_c451_SCD
*1501 ANTENNA_c451_SET_B
*1502 ANTENNA_c452_S1
*1503 ANTENNA_c452_X
*1504 ANTENNA_c453_D
*1505 ANTENNA_c453_SCD
*1506 ANTENNA_c454_D
*1507 ANTENNA_c454_SET_B
*1508 ANTENNA_c456_A2
*1509 ANTENNA_c456_S0
*1510 ANTENNA_c457_A1
*1511 ANTENNA_c457_A3
*1512 ANTENNA_c458_A3
*1513 ANTENNA_c460_S0
*1514 ANTENNA_c461_A0
*1515 ANTENNA_c461_A1
*1516 ANTENNA_c462_A
*1517 ANTENNA_c462_B
*1518 ANTENNA_c463_B
*1519 ANTENNA_c464_B
*1520 ANTENNA_c466_C_N
*1521 ANTENNA_c468_Y
*1522 ANTENNA_c474_A0
*1523 ANTENNA_c474_A2
*1524 ANTENNA_c475_SCD
*1525 ANTENNA_c475_SET_B
*1526 ANTENNA_c479_S1
*1527 ANTENNA_c480_S1
*1528 ANTENNA_c481_A3
*1529 ANTENNA_c483_A2
*1530 ANTENNA_c486_X
*1531 ANTENNA_c488_B
*1532 ANTENNA_c490_C
*1533 ANTENNA_c494_B
*1534 ANTENNA_c495_A
*1535 ANTENNA_c572_A
*1536 ANTENNA_c575_B
*1537 ANTENNA_c576_A
*1538 ANTENNA_c577_C_N
*1539 ANTENNA_c580_D1
*1540 ANTENNA_c586_S0
*1541 ANTENNA_c587_C1
*1542 ANTENNA_c590_C1
*1543 ANTENNA_c591_A3
*1544 ANTENNA_c595_B
*1545 ANTENNA_c598_A
*1546 ANTENNA_c599_B1
*1547 ANTENNA_c610_D1
*1548 ANTENNA_c620_B
*1549 ANTENNA_c622_C_N
*1550 ANTENNA_c64_X
*1551 ANTENNA_c66_B
*1552 ANTENNA_c670_CLK
*1553 ANTENNA_c671_CLK
*1554 ANTENNA_c673_CLK
*1555 ANTENNA_c674_CLK_N
*1556 ANTENNA_c67_B
*1557 ANTENNA_c689_C_N
*1558 ANTENNA_c699_X
*1559 ANTENNA_c69_A_N
*1560 ANTENNA_c701_C
*1561 ANTENNA_c704_B
*1562 ANTENNA_c719_B1
*1563 ANTENNA_c727_B
*1564 ANTENNA_c732_CLK
*1565 ANTENNA_c733_CLK
*1566 ANTENNA_c736_CLK_N
*1567 ANTENNA_c737_CLK
*1568 ANTENNA_c738_A1
*1569 ANTENNA_c742_A0
*1570 ANTENNA_c753_C_N
*1571 ANTENNA_c755_CLK
*1572 ANTENNA_c756_CLK_N
*1573 ANTENNA_c96_X
*1574 ANTENNA_c97_B1
*1575 ANTENNA_c98_A2
*1576 ANTENNA_clkbuf_0_clk_A
*1577 ANTENNA_clkbuf_0_clk_X
*1578 ANTENNA_clkbuf_4_0_0_clk_A
*1579 ANTENNA_clkbuf_4_10_0_clk_A
*1580 ANTENNA_clkbuf_4_11_0_clk_A
*1581 ANTENNA_clkbuf_4_12_0_clk_A
*1582 ANTENNA_clkbuf_4_12_0_clk_X
*1583 ANTENNA_clkbuf_4_13_0_clk_A
*1584 ANTENNA_clkbuf_4_13_0_clk_X
*1585 ANTENNA_clkbuf_4_14_0_clk_A
*1586 ANTENNA_clkbuf_4_14_0_clk_X
*1587 ANTENNA_clkbuf_4_15_0_clk_A
*1588 ANTENNA_clkbuf_4_15_0_clk_X
*1589 ANTENNA_clkbuf_4_1_0_clk_A
*1590 ANTENNA_clkbuf_4_2_0_clk_A
*1591 ANTENNA_clkbuf_4_3_0_clk_A
*1592 ANTENNA_clkbuf_4_4_0_clk_A
*1593 ANTENNA_clkbuf_4_4_0_clk_X
*1594 ANTENNA_clkbuf_4_5_0_clk_A
*1595 ANTENNA_clkbuf_4_5_0_clk_X
*1596 ANTENNA_clkbuf_4_6_0_clk_A
*1597 ANTENNA_clkbuf_4_6_0_clk_X
*1598 ANTENNA_clkbuf_4_7_0_clk_A
*1599 ANTENNA_clkbuf_4_7_0_clk_X
*1600 ANTENNA_clkbuf_4_8_0_clk_A
*1601 ANTENNA_clkbuf_4_8_0_clk_X
*1602 ANTENNA_clkbuf_4_9_0_clk_A
*1603 ANTENNA_clone1_A
*1604 ANTENNA_clone1_X
*1605 ANTENNA_clone3_A
*1606 ANTENNA_clone3_X
*1607 ANTENNA_clone4_A
*1608 ANTENNA_clone4_X
*1609 ANTENNA_fanout119_X
*1610 ANTENNA_fanout126_A
*1611 ANTENNA_fanout127_A
*1612 ANTENNA_fanout128_X
*1613 ANTENNA_fanout133_X
*1614 ANTENNA_hold23_A
*1615 ANTENNA_input10_A
*1616 ANTENNA_input11_A
*1617 ANTENNA_input12_A
*1618 ANTENNA_input13_A
*1619 ANTENNA_input14_A
*1620 ANTENNA_input15_A
*1621 ANTENNA_input16_A
*1622 ANTENNA_input17_A
*1623 ANTENNA_input18_A
*1624 ANTENNA_input19_A
*1625 ANTENNA_input1_A
*1626 ANTENNA_input20_A
*1627 ANTENNA_input21_A
*1628 ANTENNA_input21_X
*1629 ANTENNA_input22_A
*1630 ANTENNA_input23_A
*1631 ANTENNA_input24_A
*1632 ANTENNA_input25_A
*1633 ANTENNA_input26_A
*1634 ANTENNA_input27_A
*1635 ANTENNA_input28_A
*1636 ANTENNA_input29_A
*1637 ANTENNA_input2_A
*1638 ANTENNA_input30_A
*1639 ANTENNA_input31_A
*1640 ANTENNA_input32_A
*1641 ANTENNA_input33_A
*1642 ANTENNA_input34_A
*1643 ANTENNA_input35_A
*1644 ANTENNA_input36_A
*1645 ANTENNA_input37_A
*1646 ANTENNA_input38_A
*1647 ANTENNA_input39_A
*1648 ANTENNA_input3_A
*1649 ANTENNA_input40_A
*1650 ANTENNA_input41_A
*1651 ANTENNA_input42_A
*1652 ANTENNA_input43_A
*1653 ANTENNA_input44_A
*1654 ANTENNA_input45_A
*1655 ANTENNA_input46_A
*1656 ANTENNA_input47_A
*1657 ANTENNA_input48_A
*1658 ANTENNA_input49_A
*1659 ANTENNA_input4_A
*1660 ANTENNA_input50_A
*1661 ANTENNA_input51_A
*1662 ANTENNA_input51_X
*1663 ANTENNA_input52_A
*1664 ANTENNA_input53_A
*1665 ANTENNA_input54_A
*1666 ANTENNA_input55_A
*1667 ANTENNA_input56_A
*1668 ANTENNA_input57_A
*1669 ANTENNA_input58_A
*1670 ANTENNA_input59_A
*1671 ANTENNA_input5_A
*1672 ANTENNA_input60_A
*1673 ANTENNA_input61_A
*1674 ANTENNA_input62_A
*1675 ANTENNA_input6_A
*1676 ANTENNA_input7_A
*1677 ANTENNA_input8_A
*1678 ANTENNA_input9_A
*1679 ANTENNA_merge767_CLK_N
*1680 ANTENNA_merge769_CLK
*1681 ANTENNA_merge769_SCE
*1682 ANTENNA_merge769_SET_B
*1683 ANTENNA_merge771_A1
*1684 ANTENNA_merge771_A2
*1685 ANTENNA_merge772_SET_B
*1686 ANTENNA_merge774_A
*1687 ANTENNA_merge776_B1
*1688 ANTENNA_merge777_CLK
*1689 ANTENNA_merge778_CLK_N
*1690 ANTENNA_merge779_D
*1691 ANTENNA_merge779_DE
*1692 ANTENNA_merge783_D_N
*1693 ANTENNA_merge784_SCD
*1694 ANTENNA_merge785_CLK
*1695 ANTENNA_merge785_RESET_B
*1696 ANTENNA_merge786_CLK_N
*1697 ANTENNA_merge787_A1
*1698 ANTENNA_merge788_CLK
*1699 ANTENNA_merge789_D_N
*1700 ANTENNA_merge791_A0
*1701 ANTENNA_merge793_A0
*1702 ANTENNA_merge793_A1
*1703 ANTENNA_merge793_S0
*1704 ANTENNA_merge793_S1
*1705 ANTENNA_merge794_CLK_N
*1706 ANTENNA_merge795_A2
*1707 ANTENNA_merge795_S0
*1708 ANTENNA_merge795_S1
*1709 ANTENNA_merge796_A3
*1710 ANTENNA_merge796_S0
*1711 ANTENNA_merge796_S1
*1712 ANTENNA_merge797_S0
*1713 ANTENNA_merge800_A0
*1714 ANTENNA_merge800_A1
*1715 ANTENNA_merge800_A2
*1716 ANTENNA_merge800_S1
*1717 ANTENNA_merge802_CLK
*1718 ANTENNA_merge806_CLK
*1719 ANTENNA_merge806_Q
*1720 ANTENNA_merge807_CLK
*1721 ANTENNA_merge808_CLK
*1722 ANTENNA_merge809_CLK
*1723 ANTENNA_merge810_CLK
*1724 ANTENNA_merge811_CLK
*1725 ANTENNA_merge812_CLK
*1726 ANTENNA_merge813_GATE_N
*1727 ANTENNA_merge815_GATE
*1728 ANTENNA_merge816_GATE
*1729 ANTENNA_merge817_GATE_N
*1730 ANTENNA_merge818_GATE_N
*1731 ANTENNA_merge819_GATE_N
*1732 ANTENNA_merge821_GATE
*1733 ANTENNA_merge822_GATE
*1734 ANTENNA_merge823_CLK
*1735 ANTENNA_merge824_CLK
*1736 ANTENNA_merge827_CLK
*1737 ANTENNA_merge828_CLK
*1738 ANTENNA_merge831_CLK_N
*1739 ANTENNA_merge832_CLK
*1740 ANTENNA_merge833_CLK
*1741 ANTENNA_merge836_CLK
*1742 ANTENNA_merge837_CLK
*1743 ANTENNA_merge838_CLK
*1744 ANTENNA_merge840_CLK
*1745 ANTENNA_merge841_CLK
*1746 ANTENNA_output72_A
*1747 ANTENNA_output74_A
*1748 ANTENNA_output79_A
*1749 ANTENNA_output81_A
*1750 ANTENNA_s846_CLK
*1751 ANTENNA_s848_CLK
*1752 ANTENNA_s853_GATE_N
*1753 ANTENNA_s854_GATE_N
*1754 ANTENNA_s858_Q
*1755 ANTENNA_s863_CLK
*1756 ANTENNA_s864_CLK
*1757 ANTENNA_s865_CLK
*1758 ANTENNA_s866_GATE_N
*1759 ANTENNA_s867_GATE_N
*1760 ANTENNA_s868_GATE
*1761 ANTENNA_s869_GATE_N
*1762 ANTENNA_s872_GATE
*1763 ANTENNA_s873_SLEEP_B
*1764 ANTENNA_s874_Q_N
*1765 ANTENNA_s875_CLK
*1766 ANTENNA_s877_CLK
*1767 ANTENNA_s878_CLK
*1768 ANTENNA_s879_CLK
*1769 ANTENNA_s880_CLK
*1770 ANTENNA_s881_CLK
*1771 ANTENNA_s882_GATE_N
*1772 ANTENNA_s883_GATE_N
*1773 ANTENNA_s884_GATE
*1774 ANTENNA_s885_GATE_N
*1775 ANTENNA_s886_GATE_N
*1776 ANTENNA_s887_GATE_N
*1777 ANTENNA_s888_GATE
*1778 ANTENNA_s889_SLEEP_B
*1779 ANTENNA_s890_CLK
*1780 ANTENNA_s891_CLK
*1781 ANTENNA_s892_CLK