*SPEF "ieee 1481-1999"
*DESIGN "netlist_0"
*DATE "16:38:00 Thursday July 18, 2024"
*VENDOR "The OpenROAD Project"
*PROGRAM "OpenROAD"
*VERSION "d423155d69de7f683a23f6916ead418a615ad4ad"
*DESIGN_FLOW "NAME_SCOPE LOCAL" "PIN_CAP NONE"
*DIVIDER /
*DELIMITER :
*BUS_DELIMITER []
*T_UNIT 1 NS
*C_UNIT 1 PF
*R_UNIT 1 OHM
*L_UNIT 1 HENRY

*NAME_MAP
*3 clk
*4 in0
*5 in1
*6 in10
*7 in11
*8 in12
*9 in13
*10 in14
*11 in15
*12 in16
*13 in17
*14 in18
*15 in19
*16 in2
*17 in20
*18 in21
*19 in22
*20 in23
*21 in24
*22 in25
*23 in26
*24 in27
*25 in28
*26 in29
*27 in3
*28 in30
*29 in31
*30 in32
*31 in33
*32 in34
*33 in35
*34 in36
*35 in37
*36 in38
*37 in39
*38 in4
*39 in40
*40 in41
*41 in42
*42 in43
*43 in44
*44 in45
*45 in46
*46 in47
*47 in48
*48 in49
*49 in5
*50 in50
*51 in51
*52 in52
*53 in53
*54 in54
*55 in55
*56 in56
*57 in57
*58 in58
*59 in59
*60 in6
*61 in60
*62 in61
*63 in7
*64 in8
*65 in9
*66 out0
*67 out1
*68 out10
*69 out11
*70 out12
*71 out13
*72 out14
*73 out15
*74 out16
*75 out17
*76 out18
*77 out19
*78 out2
*79 out20
*80 out21
*81 out22
*82 out23
*83 out24
*84 out25
*85 out26
*86 out27
*87 out28
*88 out29
*89 out3
*90 out30
*91 out31
*92 out32
*93 out33
*94 out34
*95 out35
*96 out36
*97 out37
*98 out38
*99 out39
*100 out4
*101 out40
*102 out41
*103 out42
*104 out43
*105 out44
*106 out45
*107 out46
*108 out47
*109 out48
*110 out49
*111 out5
*112 out50
*113 out51
*114 out52
*115 out53
*116 out54
*117 out55
*118 out56
*119 out57
*120 out58
*121 out59
*122 out6
*123 out60
*124 out61
*125 out7
*126 out8
*127 out9
*128 rst
*129 clknet_0_clk
*130 clknet_0_net145
*131 clknet_0_net153
*132 clknet_0_net171
*133 clknet_0_net177
*134 clknet_0_net179
*135 clknet_0_net181
*136 clknet_0_net182
*137 clknet_0_net184
*138 clknet_0_net185
*139 clknet_0_net188
*140 clknet_0_net191
*141 clknet_0_net238
*142 clknet_0_net245
*143 clknet_0_net246
*144 clknet_0_net250
*145 clknet_0_net251
*146 clknet_0_net253
*147 clknet_0_net257
*148 clknet_0_net273
*149 clknet_0_net275
*150 clknet_0_net282
*151 clknet_0_net300
*152 clknet_0_net302
*153 clknet_0_net303
*154 clknet_0_net330
*155 clknet_0_net331
*156 clknet_0_net332
*157 clknet_0_net369
*158 clknet_0_net386
*159 clknet_0_net396
*160 clknet_0_net397
*161 clknet_0_net401
*162 clknet_0_net403
*163 clknet_0_net423
*164 clknet_0_net433
*165 clknet_0_net461
*166 clknet_0_net462
*167 clknet_0_net465
*168 clknet_0_net469
*169 clknet_0_net471
*170 clknet_0_net474
*171 clknet_0_net475
*172 clknet_0_net48
*173 clknet_0_net483
*174 clknet_0_net49
*175 clknet_0_net490
*176 clknet_0_net493
*177 clknet_0_net498
*178 clknet_0_net499
*179 clknet_0_net50
*180 clknet_0_net506
*181 clknet_0_net508
*182 clknet_0_net510
*183 clknet_0_net515
*184 clknet_0_net517
*185 clknet_0_net52
*186 clknet_0_net522
*187 clknet_0_net54
*188 clknet_0_net542
*189 clknet_0_net552
*190 clknet_0_net56
*191 clknet_0_net560
*192 clknet_0_net562
*193 clknet_0_net568
*194 clknet_0_net57
*195 clknet_0_net585
*196 clknet_0_net591
*197 clknet_0_net592
*198 clknet_0_net595
*199 clknet_0_net60
*200 clknet_0_net604
*201 clknet_0_net606
*202 clknet_0_net617
*203 clknet_0_net62
*204 clknet_0_net623
*205 clknet_0_net67
*206 clknet_0_net705
*207 clknet_0_net706
*208 clknet_0_net742
*209 clknet_0_net743
*210 clknet_0_net744
*211 clknet_0_net760
*212 clknet_0_net761
*213 clknet_0_net762
*214 clknet_0_net778
*215 clknet_0_net779
*216 clknet_0_net780
*217 clknet_0_net797
*218 clknet_0_net798
*219 clknet_0_net799
*220 clknet_0_net815
*221 clknet_0_net833
*222 clknet_0_net834
*223 clknet_0_net835
*224 clknet_0_net852
*225 clknet_0_net853
*226 clknet_0_net854
*227 clknet_0_net922
*228 clknet_0_net924
*229 clknet_0_net927
*230 clknet_0_net934
*231 clknet_0_net937
*232 clknet_0_net938
*233 clknet_0_net945
*234 clknet_0_net946
*235 clknet_0_net947
*236 clknet_0_net952
*237 clknet_0_net954
*238 clknet_0_net957
*239 clknet_0_net959
*240 clknet_0_net965
*241 clknet_0_net971
*242 clknet_0_net972
*243 clknet_0_net973
*244 clknet_0_net974
*245 clknet_0_net977
*246 clknet_1_0__leaf_net145
*247 clknet_1_0__leaf_net153
*248 clknet_1_0__leaf_net171
*249 clknet_1_0__leaf_net177
*250 clknet_1_0__leaf_net179
*251 clknet_1_0__leaf_net181
*252 clknet_1_0__leaf_net182
*253 clknet_1_0__leaf_net184
*254 clknet_1_0__leaf_net185
*255 clknet_1_0__leaf_net188
*256 clknet_1_0__leaf_net191
*257 clknet_1_0__leaf_net238
*258 clknet_1_0__leaf_net245
*259 clknet_1_0__leaf_net246
*260 clknet_1_0__leaf_net250
*261 clknet_1_0__leaf_net251
*262 clknet_1_0__leaf_net253
*263 clknet_1_0__leaf_net257
*264 clknet_1_0__leaf_net273
*265 clknet_1_0__leaf_net275
*266 clknet_1_0__leaf_net282
*267 clknet_1_0__leaf_net300
*268 clknet_1_0__leaf_net302
*269 clknet_1_0__leaf_net303
*270 clknet_1_0__leaf_net330
*271 clknet_1_0__leaf_net331
*272 clknet_1_0__leaf_net332
*273 clknet_1_0__leaf_net369
*274 clknet_1_0__leaf_net386
*275 clknet_1_0__leaf_net396
*276 clknet_1_0__leaf_net397
*277 clknet_1_0__leaf_net401
*278 clknet_1_0__leaf_net403
*279 clknet_1_0__leaf_net423
*280 clknet_1_0__leaf_net433
*281 clknet_1_0__leaf_net461
*282 clknet_1_0__leaf_net462
*283 clknet_1_0__leaf_net465
*284 clknet_1_0__leaf_net469
*285 clknet_1_0__leaf_net471
*286 clknet_1_0__leaf_net474
*287 clknet_1_0__leaf_net475
*288 clknet_1_0__leaf_net48
*289 clknet_1_0__leaf_net483
*290 clknet_1_0__leaf_net49
*291 clknet_1_0__leaf_net490
*292 clknet_1_0__leaf_net493
*293 clknet_1_0__leaf_net498
*294 clknet_1_0__leaf_net499
*295 clknet_1_0__leaf_net50
*296 clknet_1_0__leaf_net506
*297 clknet_1_0__leaf_net508
*298 clknet_1_0__leaf_net510
*299 clknet_1_0__leaf_net515
*300 clknet_1_0__leaf_net517
*301 clknet_1_0__leaf_net52
*302 clknet_1_0__leaf_net522
*303 clknet_1_0__leaf_net54
*304 clknet_1_0__leaf_net542
*305 clknet_1_0__leaf_net552
*306 clknet_1_0__leaf_net56
*307 clknet_1_0__leaf_net560
*308 clknet_1_0__leaf_net562
*309 clknet_1_0__leaf_net568
*310 clknet_1_0__leaf_net57
*311 clknet_1_0__leaf_net585
*312 clknet_1_0__leaf_net591
*313 clknet_1_0__leaf_net592
*314 clknet_1_0__leaf_net595
*315 clknet_1_0__leaf_net60
*316 clknet_1_0__leaf_net604
*317 clknet_1_0__leaf_net606
*318 clknet_1_0__leaf_net617
*319 clknet_1_0__leaf_net62
*320 clknet_1_0__leaf_net623
*321 clknet_1_0__leaf_net67
*322 clknet_1_0__leaf_net705
*323 clknet_1_0__leaf_net706
*324 clknet_1_0__leaf_net742
*325 clknet_1_0__leaf_net743
*326 clknet_1_0__leaf_net744
*327 clknet_1_0__leaf_net760
*328 clknet_1_0__leaf_net761
*329 clknet_1_0__leaf_net762
*330 clknet_1_0__leaf_net778
*331 clknet_1_0__leaf_net779
*332 clknet_1_0__leaf_net780
*333 clknet_1_0__leaf_net797
*334 clknet_1_0__leaf_net798
*335 clknet_1_0__leaf_net799
*336 clknet_1_0__leaf_net815
*337 clknet_1_0__leaf_net833
*338 clknet_1_0__leaf_net834
*339 clknet_1_0__leaf_net835
*340 clknet_1_0__leaf_net852
*341 clknet_1_0__leaf_net853
*342 clknet_1_0__leaf_net854
*343 clknet_1_0__leaf_net922
*344 clknet_1_0__leaf_net924
*345 clknet_1_0__leaf_net927
*346 clknet_1_0__leaf_net934
*347 clknet_1_0__leaf_net937
*348 clknet_1_0__leaf_net938
*349 clknet_1_0__leaf_net945
*350 clknet_1_0__leaf_net946
*351 clknet_1_0__leaf_net947
*352 clknet_1_0__leaf_net952
*353 clknet_1_0__leaf_net954
*354 clknet_1_0__leaf_net957
*355 clknet_1_0__leaf_net959
*356 clknet_1_0__leaf_net965
*357 clknet_1_0__leaf_net971
*358 clknet_1_0__leaf_net972
*359 clknet_1_0__leaf_net973
*360 clknet_1_0__leaf_net974
*361 clknet_1_0__leaf_net977
*362 clknet_1_1__leaf_net145
*363 clknet_1_1__leaf_net153
*364 clknet_1_1__leaf_net171
*365 clknet_1_1__leaf_net177
*366 clknet_1_1__leaf_net179
*367 clknet_1_1__leaf_net181
*368 clknet_1_1__leaf_net182
*369 clknet_1_1__leaf_net184
*370 clknet_1_1__leaf_net185
*371 clknet_1_1__leaf_net188
*372 clknet_1_1__leaf_net191
*373 clknet_1_1__leaf_net238
*374 clknet_1_1__leaf_net245
*375 clknet_1_1__leaf_net246
*376 clknet_1_1__leaf_net250
*377 clknet_1_1__leaf_net251
*378 clknet_1_1__leaf_net253
*379 clknet_1_1__leaf_net257
*380 clknet_1_1__leaf_net273
*381 clknet_1_1__leaf_net275
*382 clknet_1_1__leaf_net282
*383 clknet_1_1__leaf_net300
*384 clknet_1_1__leaf_net302
*385 clknet_1_1__leaf_net303
*386 clknet_1_1__leaf_net330
*387 clknet_1_1__leaf_net331
*388 clknet_1_1__leaf_net332
*389 clknet_1_1__leaf_net369
*390 clknet_1_1__leaf_net386
*391 clknet_1_1__leaf_net396
*392 clknet_1_1__leaf_net397
*393 clknet_1_1__leaf_net401
*394 clknet_1_1__leaf_net403
*395 clknet_1_1__leaf_net423
*396 clknet_1_1__leaf_net433
*397 clknet_1_1__leaf_net461
*398 clknet_1_1__leaf_net462
*399 clknet_1_1__leaf_net465
*400 clknet_1_1__leaf_net469
*401 clknet_1_1__leaf_net471
*402 clknet_1_1__leaf_net474
*403 clknet_1_1__leaf_net475
*404 clknet_1_1__leaf_net48
*405 clknet_1_1__leaf_net483
*406 clknet_1_1__leaf_net49
*407 clknet_1_1__leaf_net490
*408 clknet_1_1__leaf_net493
*409 clknet_1_1__leaf_net498
*410 clknet_1_1__leaf_net499
*411 clknet_1_1__leaf_net50
*412 clknet_1_1__leaf_net506
*413 clknet_1_1__leaf_net508
*414 clknet_1_1__leaf_net510
*415 clknet_1_1__leaf_net515
*416 clknet_1_1__leaf_net517
*417 clknet_1_1__leaf_net52
*418 clknet_1_1__leaf_net522
*419 clknet_1_1__leaf_net54
*420 clknet_1_1__leaf_net542
*421 clknet_1_1__leaf_net552
*422 clknet_1_1__leaf_net56
*423 clknet_1_1__leaf_net560
*424 clknet_1_1__leaf_net562
*425 clknet_1_1__leaf_net568
*426 clknet_1_1__leaf_net57
*427 clknet_1_1__leaf_net585
*428 clknet_1_1__leaf_net591
*429 clknet_1_1__leaf_net592
*430 clknet_1_1__leaf_net595
*431 clknet_1_1__leaf_net60
*432 clknet_1_1__leaf_net604
*433 clknet_1_1__leaf_net606
*434 clknet_1_1__leaf_net617
*435 clknet_1_1__leaf_net62
*436 clknet_1_1__leaf_net623
*437 clknet_1_1__leaf_net67
*438 clknet_1_1__leaf_net705
*439 clknet_1_1__leaf_net706
*440 clknet_1_1__leaf_net742
*441 clknet_1_1__leaf_net743
*442 clknet_1_1__leaf_net744
*443 clknet_1_1__leaf_net760
*444 clknet_1_1__leaf_net761
*445 clknet_1_1__leaf_net762
*446 clknet_1_1__leaf_net778
*447 clknet_1_1__leaf_net779
*448 clknet_1_1__leaf_net780
*449 clknet_1_1__leaf_net797
*450 clknet_1_1__leaf_net798
*451 clknet_1_1__leaf_net799
*452 clknet_1_1__leaf_net815
*453 clknet_1_1__leaf_net833
*454 clknet_1_1__leaf_net834
*455 clknet_1_1__leaf_net835
*456 clknet_1_1__leaf_net852
*457 clknet_1_1__leaf_net853
*458 clknet_1_1__leaf_net854
*459 clknet_1_1__leaf_net922
*460 clknet_1_1__leaf_net924
*461 clknet_1_1__leaf_net927
*462 clknet_1_1__leaf_net934
*463 clknet_1_1__leaf_net937
*464 clknet_1_1__leaf_net938
*465 clknet_1_1__leaf_net945
*466 clknet_1_1__leaf_net946
*467 clknet_1_1__leaf_net947
*468 clknet_1_1__leaf_net952
*469 clknet_1_1__leaf_net954
*470 clknet_1_1__leaf_net957
*471 clknet_1_1__leaf_net959
*472 clknet_1_1__leaf_net965
*473 clknet_1_1__leaf_net971
*474 clknet_1_1__leaf_net972
*475 clknet_1_1__leaf_net973
*476 clknet_1_1__leaf_net974
*477 clknet_1_1__leaf_net977
*478 clknet_4_0_0_clk
*479 clknet_4_10_0_clk
*480 clknet_4_11_0_clk
*481 clknet_4_12_0_clk
*482 clknet_4_13_0_clk
*483 clknet_4_14_0_clk
*484 clknet_4_15_0_clk
*485 clknet_4_1_0_clk
*486 clknet_4_2_0_clk
*487 clknet_4_3_0_clk
*488 clknet_4_4_0_clk
*489 clknet_4_5_0_clk
*490 clknet_4_6_0_clk
*491 clknet_4_7_0_clk
*492 clknet_4_8_0_clk
*493 clknet_4_9_0_clk
*494 net0
*495 net1
*496 net10
*497 net100
*498 net1000
*499 net1001
*500 net1002
*501 net1003
*502 net1004
*503 net1005
*504 net1006
*505 net1007
*506 net1008
*507 net1009
*508 net101
*509 net1010
*510 net1011
*511 net1012
*512 net1013
*513 net1014
*514 net1015
*515 net1016
*516 net1017
*517 net1018
*518 net1019
*519 net102
*520 net1020
*521 net1021
*522 net1022
*523 net1023
*524 net1024
*525 net1025
*526 net1026
*527 net1027
*528 net1028
*529 net1029
*530 net103
*531 net1030
*532 net1031
*533 net1032
*534 net1033
*535 net1034
*536 net1035
*537 net1036
*538 net1037
*539 net1038
*540 net1039
*541 net104
*542 net1040
*543 net1041
*544 net1042
*545 net1043
*546 net1044
*547 net1045
*548 net1046
*549 net1047
*550 net1048
*551 net1049
*552 net105
*553 net1050
*554 net1051
*555 net1052
*556 net1053
*557 net1054
*558 net1055
*559 net1056
*560 net1057
*561 net1058
*562 net1059
*563 net106
*564 net1060
*565 net1061
*566 net1062
*567 net1063
*568 net1064
*569 net1065
*570 net1066
*571 net1067
*572 net1068
*573 net1069
*574 net107
*575 net1070
*576 net1071
*577 net1072
*578 net1073
*579 net1074
*580 net1075
*581 net1076
*582 net1077
*583 net1078
*584 net1079
*585 net108
*586 net1080
*587 net1081
*588 net1082
*589 net1083
*590 net1084
*591 net1085
*592 net1086
*593 net1087
*594 net1088
*595 net1089
*596 net109
*597 net1090
*598 net1091
*599 net1092
*600 net1093
*601 net1094
*602 net1095
*603 net1096
*604 net1097
*605 net1098
*606 net1099
*607 net11
*608 net110
*609 net1100
*610 net1101
*611 net1102
*612 net1103
*613 net1104
*614 net1105
*615 net1106
*616 net1107
*617 net1108
*618 net1109
*619 net111
*620 net1110
*621 net1111
*622 net1112
*623 net1113
*624 net1114
*625 net1115
*626 net1116
*627 net1117
*628 net1118
*629 net1119
*630 net112
*631 net1120
*632 net1121
*633 net1122
*634 net1123
*635 net1124
*636 net1125
*637 net1126
*638 net1127
*639 net1128
*640 net1129
*641 net113
*642 net1130
*643 net1131
*644 net1132
*645 net1133
*646 net1134
*647 net1135
*648 net1136
*649 net1137
*650 net1138
*651 net1139
*652 net114
*653 net1140
*654 net1141
*655 net1142
*656 net1143
*657 net1144
*658 net1145
*659 net1146
*660 net1147
*661 net1148
*662 net1149
*663 net115
*664 net1150
*665 net1151
*666 net1152
*667 net1153
*668 net1154
*669 net1155
*670 net1156
*671 net1157
*672 net1158
*673 net1159
*674 net116
*675 net1160
*676 net1161
*677 net1162
*678 net1163
*679 net1164
*680 net1165
*681 net1166
*682 net1167
*683 net1168
*684 net1169
*685 net117
*686 net1170
*687 net1171
*688 net1172
*689 net1173
*690 net1174
*691 net1175
*692 net1176
*693 net1177
*694 net1178
*695 net1179
*696 net118
*697 net1180
*698 net1181
*699 net1182
*700 net1183
*701 net1184
*702 net1185
*703 net1186
*704 net1187
*705 net1188
*706 net1189
*707 net119
*708 net1190
*709 net1191
*710 net1192
*711 net1193
*712 net1194
*713 net1195
*714 net1196
*715 net1197
*716 net1198
*717 net1199
*718 net12
*719 net120
*720 net1200
*721 net1201
*722 net1202
*723 net1203
*724 net1204
*725 net1205
*726 net1206
*727 net1207
*728 net1208
*729 net1209
*730 net121
*731 net1210
*732 net1211
*733 net1212
*734 net1213
*735 net1214
*736 net1215
*737 net1216
*738 net1217
*739 net1218
*740 net1219
*741 net122
*742 net1220
*743 net1221
*744 net1222
*745 net1223
*746 net1224
*747 net1225
*748 net1226
*749 net1227
*750 net1228
*751 net1229
*752 net123
*753 net1230
*754 net1231
*755 net1232
*756 net1233
*757 net1234
*758 net1235
*759 net1236
*760 net1237
*761 net1238
*762 net1239
*763 net124
*764 net1240
*765 net1241
*766 net1242
*767 net1243
*768 net1244
*769 net1245
*770 net1246
*771 net1247
*772 net1248
*773 net125
*774 net126
*775 net127
*776 net128
*777 net129
*778 net13
*779 net130
*780 net131
*781 net132
*782 net133
*783 net134
*784 net135
*785 net136
*786 net137
*787 net138
*788 net139
*789 net14
*790 net140
*791 net141
*792 net142
*793 net143
*794 net144
*795 net145
*796 net146
*797 net147
*798 net148
*799 net149
*800 net15
*801 net150
*802 net151
*803 net152
*804 net153
*805 net154
*806 net155
*807 net156
*808 net157
*809 net158
*810 net159
*811 net16
*812 net160
*813 net161
*814 net162
*815 net163
*816 net164
*817 net165
*818 net166
*819 net167
*820 net168
*821 net169
*822 net17
*823 net170
*824 net171
*825 net172
*826 net173
*827 net174
*828 net175
*829 net176
*830 net177
*831 net178
*832 net179
*833 net18
*834 net180
*835 net181
*836 net182
*837 net183
*838 net184
*839 net185
*840 net186
*841 net187
*842 net188
*843 net189
*844 net19
*845 net190
*846 net191
*847 net192
*848 net193
*849 net194
*850 net195
*851 net196
*852 net197
*853 net198
*854 net199
*855 net2
*856 net20
*857 net200
*858 net201
*859 net202
*860 net203
*861 net204
*862 net205
*863 net206
*864 net207
*865 net208
*866 net209
*867 net21
*868 net210
*869 net211
*870 net212
*871 net213
*872 net214
*873 net215
*874 net216
*875 net217
*876 net218
*877 net219
*878 net22
*879 net220
*880 net221
*881 net222
*882 net223
*883 net224
*884 net225
*885 net226
*886 net227
*887 net228
*888 net229
*889 net23
*890 net230
*891 net231
*892 net232
*893 net233
*894 net234
*895 net235
*896 net236
*897 net237
*898 net238
*899 net239
*900 net24
*901 net240
*902 net241
*903 net242
*904 net243
*905 net244
*906 net245
*907 net246
*908 net247
*909 net248
*910 net249
*911 net25
*912 net250
*913 net251
*914 net252
*915 net253
*916 net254
*917 net255
*918 net256
*919 net257
*920 net258
*921 net259
*922 net26
*923 net260
*924 net261
*925 net262
*926 net263
*927 net264
*928 net265
*929 net266
*930 net267
*931 net268
*932 net269
*933 net27
*934 net270
*935 net271
*936 net272
*937 net273
*938 net274
*939 net275
*940 net276
*941 net277
*942 net278
*943 net279
*944 net28
*945 net280
*946 net281
*947 net282
*948 net283
*949 net284
*950 net285
*951 net286
*952 net287
*953 net288
*954 net289
*955 net29
*956 net290
*957 net291
*958 net292
*959 net293
*960 net294
*961 net295
*962 net296
*963 net297
*964 net298
*965 net299
*966 net3
*967 net30
*968 net300
*969 net301
*970 net302
*971 net303
*972 net304
*973 net305
*974 net306
*975 net307
*976 net308
*977 net309
*978 net31
*979 net310
*980 net311
*981 net312
*982 net313
*983 net314
*984 net315
*985 net316
*986 net317
*987 net318
*988 net319
*989 net32
*990 net320
*991 net321
*992 net322
*993 net323
*994 net324
*995 net325
*996 net326
*997 net327
*998 net328
*999 net329
*1000 net33
*1001 net330
*1002 net331
*1003 net332
*1004 net333
*1005 net334
*1006 net335
*1007 net336
*1008 net337
*1009 net338
*1010 net339
*1011 net34
*1012 net340
*1013 net341
*1014 net342
*1015 net343
*1016 net344
*1017 net345
*1018 net346
*1019 net347
*1020 net348
*1021 net349
*1022 net35
*1023 net350
*1024 net351
*1025 net352
*1026 net353
*1027 net354
*1028 net355
*1029 net356
*1030 net357
*1031 net358
*1032 net359
*1033 net36
*1034 net360
*1035 net361
*1036 net362
*1037 net363
*1038 net364
*1039 net365
*1040 net366
*1041 net367
*1042 net368
*1043 net369
*1044 net37
*1045 net370
*1046 net371
*1047 net372
*1048 net373
*1049 net374
*1050 net375
*1051 net376
*1052 net377
*1053 net378
*1054 net379
*1055 net38
*1056 net380
*1057 net381
*1058 net382
*1059 net383
*1060 net384
*1061 net385
*1062 net386
*1063 net387
*1064 net388
*1065 net389
*1066 net39
*1067 net390
*1068 net391
*1069 net392
*1070 net393
*1071 net394
*1072 net395
*1073 net396
*1074 net397
*1075 net398
*1076 net399
*1077 net4
*1078 net40
*1079 net400
*1080 net401
*1081 net402
*1082 net403
*1083 net404
*1084 net405
*1085 net406
*1086 net407
*1087 net408
*1088 net409
*1089 net41
*1090 net410
*1091 net411
*1092 net412
*1093 net413
*1094 net414
*1095 net415
*1096 net416
*1097 net417
*1098 net418
*1099 net419
*1100 net42
*1101 net420
*1102 net421
*1103 net422
*1104 net423
*1105 net424
*1106 net425
*1107 net426
*1108 net427
*1109 net428
*1110 net429
*1111 net43
*1112 net430
*1113 net431
*1114 net432
*1115 net433
*1116 net434
*1117 net435
*1118 net436
*1119 net437
*1120 net438
*1121 net439
*1122 net44
*1123 net440
*1124 net441
*1125 net442
*1126 net443
*1127 net444
*1128 net445
*1129 net446
*1130 net447
*1131 net448
*1132 net449
*1133 net45
*1134 net450
*1135 net451
*1136 net452
*1137 net453
*1138 net454
*1139 net455
*1140 net456
*1141 net457
*1142 net458
*1143 net459
*1144 net46
*1145 net460
*1146 net461
*1147 net462
*1148 net463
*1149 net464
*1150 net465
*1151 net466
*1152 net467
*1153 net468
*1154 net469
*1155 net47
*1156 net470
*1157 net471
*1158 net472
*1159 net473
*1160 net474
*1161 net475
*1162 net476
*1163 net477
*1164 net478
*1165 net479
*1166 net48
*1167 net480
*1168 net481
*1169 net482
*1170 net483
*1171 net484
*1172 net485
*1173 net486
*1174 net487
*1175 net488
*1176 net489
*1177 net49
*1178 net490
*1179 net491
*1180 net492
*1181 net493
*1182 net494
*1183 net495
*1184 net496
*1185 net497
*1186 net498
*1187 net499
*1188 net5
*1189 net50
*1190 net500
*1191 net501
*1192 net502
*1193 net503
*1194 net504
*1195 net505
*1196 net506
*1197 net507
*1198 net508
*1199 net509
*1200 net51
*1201 net510
*1202 net511
*1203 net512
*1204 net513
*1205 net514
*1206 net515
*1207 net516
*1208 net517
*1209 net518
*1210 net519
*1211 net52
*1212 net520
*1213 net521
*1214 net522
*1215 net523
*1216 net524
*1217 net525
*1218 net526
*1219 net527
*1220 net528
*1221 net529
*1222 net53
*1223 net530
*1224 net531
*1225 net532
*1226 net533
*1227 net534
*1228 net535
*1229 net536
*1230 net537
*1231 net538
*1232 net539
*1233 net54
*1234 net540
*1235 net541
*1236 net542
*1237 net543
*1238 net544
*1239 net545
*1240 net546
*1241 net547
*1242 net548
*1243 net549
*1244 net55
*1245 net550
*1246 net551
*1247 net552
*1248 net553
*1249 net554
*1250 net555
*1251 net556
*1252 net557
*1253 net558
*1254 net559
*1255 net56
*1256 net560
*1257 net561
*1258 net562
*1259 net563
*1260 net564
*1261 net565
*1262 net566
*1263 net567
*1264 net568
*1265 net569
*1266 net57
*1267 net570
*1268 net571
*1269 net572
*1270 net573
*1271 net574
*1272 net575
*1273 net576
*1274 net577
*1275 net578
*1276 net579
*1277 net58
*1278 net580
*1279 net581
*1280 net582
*1281 net583
*1282 net584
*1283 net585
*1284 net586
*1285 net587
*1286 net588
*1287 net589
*1288 net59
*1289 net590
*1290 net591
*1291 net592
*1292 net593
*1293 net594
*1294 net595
*1295 net596
*1296 net597
*1297 net598
*1298 net599
*1299 net6
*1300 net60
*1301 net600
*1302 net601
*1303 net602
*1304 net603
*1305 net604
*1306 net605
*1307 net606
*1308 net607
*1309 net608
*1310 net609
*1311 net61
*1312 net610
*1313 net611
*1314 net612
*1315 net613
*1316 net614
*1317 net615
*1318 net616
*1319 net617
*1320 net618
*1321 net619
*1322 net62
*1323 net620
*1324 net621
*1325 net622
*1326 net623
*1327 net624
*1328 net625
*1329 net626
*1330 net627
*1331 net628
*1332 net629
*1333 net63
*1334 net630
*1335 net631
*1336 net632
*1337 net633
*1338 net634
*1339 net635
*1340 net636
*1341 net637
*1342 net638
*1343 net639
*1344 net64
*1345 net640
*1346 net641
*1347 net642
*1348 net643
*1349 net644
*1350 net645
*1351 net646
*1352 net647
*1353 net648
*1354 net649
*1355 net65
*1356 net650
*1357 net651
*1358 net652
*1359 net653
*1360 net654
*1361 net655
*1362 net656
*1363 net657
*1364 net658
*1365 net659
*1366 net66
*1367 net660
*1368 net661
*1369 net662
*1370 net663
*1371 net664
*1372 net665
*1373 net666
*1374 net667
*1375 net668
*1376 net669
*1377 net67
*1378 net670
*1379 net671
*1380 net672
*1381 net673
*1382 net674
*1383 net675
*1384 net676
*1385 net677
*1386 net678
*1387 net679
*1388 net68
*1389 net680
*1390 net681
*1391 net682
*1392 net683
*1393 net684
*1394 net685
*1395 net686
*1396 net687
*1397 net688
*1398 net689
*1399 net69
*1400 net690
*1401 net691
*1402 net692
*1403 net693
*1404 net694
*1405 net695
*1406 net696
*1407 net697
*1408 net698
*1409 net699
*1410 net7
*1411 net70
*1412 net700
*1413 net701
*1414 net702
*1415 net703
*1416 net704
*1417 net705
*1418 net706
*1419 net707
*1420 net708
*1421 net709
*1422 net71
*1423 net710
*1424 net711
*1425 net712
*1426 net713
*1427 net714
*1428 net715
*1429 net716
*1430 net717
*1431 net718
*1432 net719
*1433 net72
*1434 net720
*1435 net721
*1436 net722
*1437 net723
*1438 net724
*1439 net725
*1440 net726
*1441 net727
*1442 net728
*1443 net729
*1444 net73
*1445 net730
*1446 net731
*1447 net732
*1448 net733
*1449 net734
*1450 net735
*1451 net736
*1452 net737
*1453 net738
*1454 net739
*1455 net74
*1456 net740
*1457 net741
*1458 net742
*1459 net743
*1460 net744
*1461 net745
*1462 net746
*1463 net747
*1464 net748
*1465 net749
*1466 net75
*1467 net750
*1468 net751
*1469 net752
*1470 net753
*1471 net754
*1472 net755
*1473 net756
*1474 net757
*1475 net758
*1476 net759
*1477 net76
*1478 net760
*1479 net761
*1480 net762
*1481 net763
*1482 net764
*1483 net765
*1484 net766
*1485 net767
*1486 net768
*1487 net769
*1488 net77
*1489 net770
*1490 net771
*1491 net772
*1492 net773
*1493 net774
*1494 net775
*1495 net776
*1496 net777
*1497 net778
*1498 net779
*1499 net78
*1500 net780
*1501 net781
*1502 net782
*1503 net783
*1504 net784
*1505 net785
*1506 net786
*1507 net787
*1508 net788
*1509 net789
*1510 net79
*1511 net790
*1512 net791
*1513 net792
*1514 net793
*1515 net794
*1516 net795
*1517 net796
*1518 net797
*1519 net798
*1520 net799
*1521 net8
*1522 net80
*1523 net800
*1524 net801
*1525 net802
*1526 net803
*1527 net804
*1528 net805
*1529 net806
*1530 net807
*1531 net808
*1532 net809
*1533 net81
*1534 net810
*1535 net811
*1536 net812
*1537 net813
*1538 net814
*1539 net815
*1540 net816
*1541 net817
*1542 net818
*1543 net819
*1544 net82
*1545 net820
*1546 net821
*1547 net822
*1548 net823
*1549 net824
*1550 net825
*1551 net826
*1552 net827
*1553 net828
*1554 net829
*1555 net83
*1556 net830
*1557 net831
*1558 net832
*1559 net833
*1560 net834
*1561 net835
*1562 net836
*1563 net837
*1564 net838
*1565 net839
*1566 net84
*1567 net840
*1568 net841
*1569 net842
*1570 net843
*1571 net844
*1572 net845
*1573 net846
*1574 net847
*1575 net848
*1576 net849
*1577 net85
*1578 net850
*1579 net851
*1580 net852
*1581 net853
*1582 net854
*1583 net855
*1584 net856
*1585 net857
*1586 net858
*1587 net859
*1588 net86
*1589 net860
*1590 net861
*1591 net862
*1592 net863
*1593 net864
*1594 net865
*1595 net866
*1596 net867
*1597 net868
*1598 net869
*1599 net87
*1600 net870
*1601 net871
*1602 net872
*1603 net873
*1604 net874
*1605 net875
*1606 net876
*1607 net877
*1608 net878
*1609 net879
*1610 net88
*1611 net880
*1612 net881
*1613 net882
*1614 net883
*1615 net884
*1616 net885
*1617 net886
*1618 net887
*1619 net888
*1620 net889
*1621 net89
*1622 net890
*1623 net891
*1624 net892
*1625 net893
*1626 net894
*1627 net895
*1628 net896
*1629 net897
*1630 net898
*1631 net899
*1632 net9
*1633 net90
*1634 net900
*1635 net901
*1636 net902
*1637 net903
*1638 net904
*1639 net905
*1640 net906
*1641 net907
*1642 net908
*1643 net909
*1644 net91
*1645 net910
*1646 net911
*1647 net912
*1648 net913
*1649 net914
*1650 net915
*1651 net916
*1652 net917
*1653 net918
*1654 net919
*1655 net92
*1656 net920
*1657 net921
*1658 net922
*1659 net923
*1660 net924
*1661 net925
*1662 net926
*1663 net927
*1664 net928
*1665 net929
*1666 net93
*1667 net930
*1668 net931
*1669 net932
*1670 net933
*1671 net934
*1672 net935
*1673 net936
*1674 net937
*1675 net938
*1676 net939
*1677 net94
*1678 net940
*1679 net941
*1680 net942
*1681 net943
*1682 net944
*1683 net945
*1684 net946
*1685 net947
*1686 net948
*1687 net949
*1688 net95
*1689 net950
*1690 net951
*1691 net952
*1692 net953
*1693 net954
*1694 net955
*1695 net956
*1696 net957
*1697 net958
*1698 net959
*1699 net96
*1700 net960
*1701 net961
*1702 net962
*1703 net963
*1704 net964
*1705 net965
*1706 net966
*1707 net967
*1708 net968
*1709 net969
*1710 net97
*1711 net970
*1712 net971
*1713 net972
*1714 net973
*1715 net974
*1716 net975
*1717 net976
*1718 net977
*1719 net978
*1720 net979
*1721 net98
*1722 net980
*1723 net981
*1724 net982
*1725 net983
*1726 net984
*1727 net985
*1728 net986
*1729 net987
*1730 net988
*1731 net989
*1732 net99
*1733 net990
*1734 net991
*1735 net992
*1736 net993
*1737 net994
*1738 net995
*1739 net996
*1740 net997
*1741 net998
*1742 net999
*1743 ANTENNA_c100_C1
*1744 ANTENNA_c102_CLK_N
*1745 ANTENNA_c102_Q_N
*1746 ANTENNA_c102_SCE
*1747 ANTENNA_c104_C1
*1748 ANTENNA_c105_A1
*1749 ANTENNA_c105_A3
*1750 ANTENNA_c105_S1
*1751 ANTENNA_c106_CLK_N
*1752 ANTENNA_c107_A1
*1753 ANTENNA_c107_C1
*1754 ANTENNA_c108_S1
*1755 ANTENNA_c108_X
*1756 ANTENNA_c109_A2
*1757 ANTENNA_c109_S0
*1758 ANTENNA_c109_S1
*1759 ANTENNA_c110_A
*1760 ANTENNA_c111_A
*1761 ANTENNA_c112_C
*1762 ANTENNA_c113_CLK_N
*1763 ANTENNA_c113_Q
*1764 ANTENNA_c113_RESET_B
*1765 ANTENNA_c113_SET_B
*1766 ANTENNA_c114_C
*1767 ANTENNA_c115_A
*1768 ANTENNA_c116_B
*1769 ANTENNA_c117_A1
*1770 ANTENNA_c117_A2
*1771 ANTENNA_c118_A
*1772 ANTENNA_c118_D_N
*1773 ANTENNA_c119_A2
*1774 ANTENNA_c119_B1
*1775 ANTENNA_c120_B1
*1776 ANTENNA_c120_D1
*1777 ANTENNA_c121_C
*1778 ANTENNA_c122_B1
*1779 ANTENNA_c123_B
*1780 ANTENNA_c123_C_N
*1781 ANTENNA_c125_A1
*1782 ANTENNA_c125_A2
*1783 ANTENNA_c126_C_N
*1784 ANTENNA_c126_D_N
*1785 ANTENNA_c127_S1
*1786 ANTENNA_c128_D1
*1787 ANTENNA_c129_CLK
*1788 ANTENNA_c130_C_N
*1789 ANTENNA_c131_A1
*1790 ANTENNA_c131_S1
*1791 ANTENNA_c132_X
*1792 ANTENNA_c133_X
*1793 ANTENNA_c134_C1
*1794 ANTENNA_c136_A2
*1795 ANTENNA_c138_B
*1796 ANTENNA_c138_Y
*1797 ANTENNA_c139_A2
*1798 ANTENNA_c140_B
*1799 ANTENNA_c140_C_N
*1800 ANTENNA_c140_X
*1801 ANTENNA_c141_A2
*1802 ANTENNA_c141_A3
*1803 ANTENNA_c141_X
*1804 ANTENNA_c142_A2
*1805 ANTENNA_c142_X
*1806 ANTENNA_c143_C1
*1807 ANTENNA_c145_Y
*1808 ANTENNA_c146_D1
*1809 ANTENNA_c147_C1
*1810 ANTENNA_c147_Y
*1811 ANTENNA_c148_C1
*1812 ANTENNA_c149_A0
*1813 ANTENNA_c149_A1
*1814 ANTENNA_c149_X
*1815 ANTENNA_c151_C1
*1816 ANTENNA_c152_A0
*1817 ANTENNA_c152_S1
*1818 ANTENNA_c152_X
*1819 ANTENNA_c153_A0
*1820 ANTENNA_c153_S0
*1821 ANTENNA_c153_X
*1822 ANTENNA_c154_B1
*1823 ANTENNA_c154_D1
*1824 ANTENNA_c155_B
*1825 ANTENNA_c155_C_N
*1826 ANTENNA_c156_C1
*1827 ANTENNA_c156_Y
*1828 ANTENNA_c157_B
*1829 ANTENNA_c157_C_N
*1830 ANTENNA_c157_D_N
*1831 ANTENNA_c158_A2
*1832 ANTENNA_c158_S1
*1833 ANTENNA_c159_A2
*1834 ANTENNA_c159_S0
*1835 ANTENNA_c159_X
*1836 ANTENNA_c160_B1
*1837 ANTENNA_c160_D1
*1838 ANTENNA_c161_B
*1839 ANTENNA_c161_D_N
*1840 ANTENNA_c161_X
*1841 ANTENNA_c162_A
*1842 ANTENNA_c162_X
*1843 ANTENNA_c163_A1
*1844 ANTENNA_c163_A2
*1845 ANTENNA_c163_B1
*1846 ANTENNA_c163_C1
*1847 ANTENNA_c163_D1
*1848 ANTENNA_c164_B1
*1849 ANTENNA_c164_D1
*1850 ANTENNA_c165_C
*1851 ANTENNA_c166_A1
*1852 ANTENNA_c166_A2
*1853 ANTENNA_c166_A3
*1854 ANTENNA_c168_C1
*1855 ANTENNA_c169_A3
*1856 ANTENNA_c169_S0
*1857 ANTENNA_c170_X
*1858 ANTENNA_c171_A1
*1859 ANTENNA_c171_A2
*1860 ANTENNA_c172_A3
*1861 ANTENNA_c173_S1
*1862 ANTENNA_c174_A0
*1863 ANTENNA_c174_A2
*1864 ANTENNA_c174_S0
*1865 ANTENNA_c174_S1
*1866 ANTENNA_c175_S0
*1867 ANTENNA_c176_X
*1868 ANTENNA_c177_A
*1869 ANTENNA_c177_B
*1870 ANTENNA_c177_C_N
*1871 ANTENNA_c177_D_N
*1872 ANTENNA_c177_X
*1873 ANTENNA_c178_C_N
*1874 ANTENNA_c178_D_N
*1875 ANTENNA_c179_A1
*1876 ANTENNA_c179_B1
*1877 ANTENNA_c179_C1
*1878 ANTENNA_c179_D1
*1879 ANTENNA_c179_X
*1880 ANTENNA_c180_A0
*1881 ANTENNA_c180_A1
*1882 ANTENNA_c180_A2