*SPEF "ieee 1481-1999"
*DESIGN "netlist_2"
*DATE "20:19:25 Tuesday July 23, 2024"
*VENDOR "The OpenROAD Project"
*PROGRAM "OpenROAD"
*VERSION "d423155d69de7f683a23f6916ead418a615ad4ad"
*DESIGN_FLOW "NAME_SCOPE LOCAL" "PIN_CAP NONE"
*DIVIDER /
*DELIMITER :
*BUS_DELIMITER []
*T_UNIT 1 NS
*C_UNIT 1 PF
*R_UNIT 1 OHM
*L_UNIT 1 HENRY

*NAME_MAP
*3 clk
*4 in0
*5 in1
*6 in10
*7 in11
*8 in12
*9 in13
*10 in14
*11 in15
*12 in16
*13 in17
*14 in18
*15 in19
*16 in2
*17 in20
*18 in21
*19 in22
*20 in23
*21 in24
*22 in25
*23 in26
*24 in27
*25 in28
*26 in29
*27 in3
*28 in30
*29 in31
*30 in32
*31 in33
*32 in34
*33 in35
*34 in36
*35 in37
*36 in38
*37 in39
*38 in4
*39 in40
*40 in41
*41 in42
*42 in43
*43 in44
*44 in45
*45 in46
*46 in47
*47 in48
*48 in49
*49 in5
*50 in50
*51 in51
*52 in6
*53 in7
*54 in8
*55 in9
*56 out0
*57 out1
*58 out10
*59 out11
*60 out12
*61 out13
*62 out14
*63 out15
*64 out16
*65 out17
*66 out18
*67 out19
*68 out2
*69 out20
*70 out21
*71 out22
*72 out23
*73 out24
*74 out25
*75 out26
*76 out27
*77 out28
*78 out29
*79 out3
*80 out30
*81 out31
*82 out32
*83 out33
*84 out34
*85 out35
*86 out36
*87 out37
*88 out38
*89 out39
*90 out4
*91 out40
*92 out41
*93 out42
*94 out43
*95 out44
*96 out45
*97 out46
*98 out47
*99 out48
*100 out49
*101 out5
*102 out50
*103 out51
*104 out6
*105 out7
*106 out8
*107 out9
*108 rst
*109 clknet_0_clk
*110 clknet_0_net1003
*111 clknet_0_net1014
*112 clknet_0_net1019
*113 clknet_0_net1023
*114 clknet_0_net1025
*115 clknet_0_net136
*116 clknet_0_net137
*117 clknet_0_net147
*118 clknet_0_net183
*119 clknet_0_net194
*120 clknet_0_net222
*121 clknet_0_net230
*122 clknet_0_net235
*123 clknet_0_net247
*124 clknet_0_net258
*125 clknet_0_net262
*126 clknet_0_net267
*127 clknet_0_net270
*128 clknet_0_net276
*129 clknet_0_net289
*130 clknet_0_net316
*131 clknet_0_net321
*132 clknet_0_net333
*133 clknet_0_net335
*134 clknet_0_net339
*135 clknet_0_net340
*136 clknet_0_net342
*137 clknet_0_net361
*138 clknet_0_net362
*139 clknet_0_net365
*140 clknet_0_net366
*141 clknet_0_net367
*142 clknet_0_net371
*143 clknet_0_net373
*144 clknet_0_net374
*145 clknet_0_net375
*146 clknet_0_net381
*147 clknet_0_net385
*148 clknet_0_net388
*149 clknet_0_net391
*150 clknet_0_net398
*151 clknet_0_net399
*152 clknet_0_net412
*153 clknet_0_net415
*154 clknet_0_net419
*155 clknet_0_net425
*156 clknet_0_net429
*157 clknet_0_net452
*158 clknet_0_net453
*159 clknet_0_net454
*160 clknet_0_net456
*161 clknet_0_net458
*162 clknet_0_net462
*163 clknet_0_net463
*164 clknet_0_net464
*165 clknet_0_net474
*166 clknet_0_net481
*167 clknet_0_net510
*168 clknet_0_net530
*169 clknet_0_net534
*170 clknet_0_net535
*171 clknet_0_net554
*172 clknet_0_net562
*173 clknet_0_net565
*174 clknet_0_net566
*175 clknet_0_net567
*176 clknet_0_net576
*177 clknet_0_net577
*178 clknet_0_net582
*179 clknet_0_net586
*180 clknet_0_net597
*181 clknet_0_net598
*182 clknet_0_net616
*183 clknet_0_net617
*184 clknet_0_net623
*185 clknet_0_net643
*186 clknet_0_net647
*187 clknet_0_net655
*188 clknet_0_net786
*189 clknet_0_net827
*190 clknet_0_net828
*191 clknet_0_net830
*192 clknet_0_net860
*193 clknet_0_net866
*194 clknet_0_net867
*195 clknet_0_net880
*196 clknet_0_net881
*197 clknet_0_net899
*198 clknet_0_net900
*199 clknet_0_net919
*200 clknet_0_net920
*201 clknet_0_net987
*202 clknet_0_net990
*203 clknet_0_net992
*204 clknet_0_net995
*205 clknet_1_0__leaf_net1003
*206 clknet_1_0__leaf_net1014
*207 clknet_1_0__leaf_net1019
*208 clknet_1_0__leaf_net1023
*209 clknet_1_0__leaf_net1025
*210 clknet_1_0__leaf_net136
*211 clknet_1_0__leaf_net137
*212 clknet_1_0__leaf_net147
*213 clknet_1_0__leaf_net183
*214 clknet_1_0__leaf_net194
*215 clknet_1_0__leaf_net222
*216 clknet_1_0__leaf_net230
*217 clknet_1_0__leaf_net235
*218 clknet_1_0__leaf_net247
*219 clknet_1_0__leaf_net258
*220 clknet_1_0__leaf_net262
*221 clknet_1_0__leaf_net267
*222 clknet_1_0__leaf_net270
*223 clknet_1_0__leaf_net276
*224 clknet_1_0__leaf_net289
*225 clknet_1_0__leaf_net316
*226 clknet_1_0__leaf_net321
*227 clknet_1_0__leaf_net333
*228 clknet_1_0__leaf_net335
*229 clknet_1_0__leaf_net339
*230 clknet_1_0__leaf_net340
*231 clknet_1_0__leaf_net342
*232 clknet_1_0__leaf_net361
*233 clknet_1_0__leaf_net362
*234 clknet_1_0__leaf_net365
*235 clknet_1_0__leaf_net366
*236 clknet_1_0__leaf_net367
*237 clknet_1_0__leaf_net371
*238 clknet_1_0__leaf_net373
*239 clknet_1_0__leaf_net374
*240 clknet_1_0__leaf_net375
*241 clknet_1_0__leaf_net381
*242 clknet_1_0__leaf_net385
*243 clknet_1_0__leaf_net388
*244 clknet_1_0__leaf_net391
*245 clknet_1_0__leaf_net398
*246 clknet_1_0__leaf_net399
*247 clknet_1_0__leaf_net412
*248 clknet_1_0__leaf_net415
*249 clknet_1_0__leaf_net419
*250 clknet_1_0__leaf_net425
*251 clknet_1_0__leaf_net429
*252 clknet_1_0__leaf_net452
*253 clknet_1_0__leaf_net453
*254 clknet_1_0__leaf_net454
*255 clknet_1_0__leaf_net456
*256 clknet_1_0__leaf_net458
*257 clknet_1_0__leaf_net462
*258 clknet_1_0__leaf_net463
*259 clknet_1_0__leaf_net464
*260 clknet_1_0__leaf_net474
*261 clknet_1_0__leaf_net481
*262 clknet_1_0__leaf_net510
*263 clknet_1_0__leaf_net530
*264 clknet_1_0__leaf_net534
*265 clknet_1_0__leaf_net535
*266 clknet_1_0__leaf_net554
*267 clknet_1_0__leaf_net562
*268 clknet_1_0__leaf_net565
*269 clknet_1_0__leaf_net566
*270 clknet_1_0__leaf_net567
*271 clknet_1_0__leaf_net576
*272 clknet_1_0__leaf_net577
*273 clknet_1_0__leaf_net582
*274 clknet_1_0__leaf_net586
*275 clknet_1_0__leaf_net597
*276 clknet_1_0__leaf_net598
*277 clknet_1_0__leaf_net616
*278 clknet_1_0__leaf_net617
*279 clknet_1_0__leaf_net623
*280 clknet_1_0__leaf_net643
*281 clknet_1_0__leaf_net647
*282 clknet_1_0__leaf_net655
*283 clknet_1_0__leaf_net786
*284 clknet_1_0__leaf_net827
*285 clknet_1_0__leaf_net828
*286 clknet_1_0__leaf_net830
*287 clknet_1_0__leaf_net860
*288 clknet_1_0__leaf_net866
*289 clknet_1_0__leaf_net867
*290 clknet_1_0__leaf_net880
*291 clknet_1_0__leaf_net881
*292 clknet_1_0__leaf_net899
*293 clknet_1_0__leaf_net900
*294 clknet_1_0__leaf_net919
*295 clknet_1_0__leaf_net920
*296 clknet_1_0__leaf_net987
*297 clknet_1_0__leaf_net990
*298 clknet_1_0__leaf_net992
*299 clknet_1_0__leaf_net995
*300 clknet_1_1__leaf_net1003
*301 clknet_1_1__leaf_net1014
*302 clknet_1_1__leaf_net1019
*303 clknet_1_1__leaf_net1023
*304 clknet_1_1__leaf_net1025
*305 clknet_1_1__leaf_net136
*306 clknet_1_1__leaf_net137
*307 clknet_1_1__leaf_net147
*308 clknet_1_1__leaf_net183
*309 clknet_1_1__leaf_net194
*310 clknet_1_1__leaf_net222
*311 clknet_1_1__leaf_net230
*312 clknet_1_1__leaf_net235
*313 clknet_1_1__leaf_net247
*314 clknet_1_1__leaf_net258
*315 clknet_1_1__leaf_net262
*316 clknet_1_1__leaf_net267
*317 clknet_1_1__leaf_net270
*318 clknet_1_1__leaf_net276
*319 clknet_1_1__leaf_net289
*320 clknet_1_1__leaf_net316
*321 clknet_1_1__leaf_net321
*322 clknet_1_1__leaf_net333
*323 clknet_1_1__leaf_net335
*324 clknet_1_1__leaf_net339
*325 clknet_1_1__leaf_net340
*326 clknet_1_1__leaf_net342
*327 clknet_1_1__leaf_net361
*328 clknet_1_1__leaf_net362
*329 clknet_1_1__leaf_net365
*330 clknet_1_1__leaf_net366
*331 clknet_1_1__leaf_net367
*332 clknet_1_1__leaf_net371
*333 clknet_1_1__leaf_net373
*334 clknet_1_1__leaf_net374
*335 clknet_1_1__leaf_net375
*336 clknet_1_1__leaf_net381
*337 clknet_1_1__leaf_net385
*338 clknet_1_1__leaf_net388
*339 clknet_1_1__leaf_net391
*340 clknet_1_1__leaf_net398
*341 clknet_1_1__leaf_net399
*342 clknet_1_1__leaf_net412
*343 clknet_1_1__leaf_net415
*344 clknet_1_1__leaf_net419
*345 clknet_1_1__leaf_net425
*346 clknet_1_1__leaf_net429
*347 clknet_1_1__leaf_net452
*348 clknet_1_1__leaf_net453
*349 clknet_1_1__leaf_net454
*350 clknet_1_1__leaf_net456
*351 clknet_1_1__leaf_net458
*352 clknet_1_1__leaf_net462
*353 clknet_1_1__leaf_net463
*354 clknet_1_1__leaf_net464
*355 clknet_1_1__leaf_net474
*356 clknet_1_1__leaf_net481
*357 clknet_1_1__leaf_net510
*358 clknet_1_1__leaf_net530
*359 clknet_1_1__leaf_net534
*360 clknet_1_1__leaf_net535
*361 clknet_1_1__leaf_net554
*362 clknet_1_1__leaf_net562
*363 clknet_1_1__leaf_net565
*364 clknet_1_1__leaf_net566
*365 clknet_1_1__leaf_net567
*366 clknet_1_1__leaf_net576
*367 clknet_1_1__leaf_net577
*368 clknet_1_1__leaf_net582
*369 clknet_1_1__leaf_net586
*370 clknet_1_1__leaf_net597
*371 clknet_1_1__leaf_net598
*372 clknet_1_1__leaf_net616
*373 clknet_1_1__leaf_net617
*374 clknet_1_1__leaf_net623
*375 clknet_1_1__leaf_net643
*376 clknet_1_1__leaf_net647
*377 clknet_1_1__leaf_net655
*378 clknet_1_1__leaf_net786
*379 clknet_1_1__leaf_net827
*380 clknet_1_1__leaf_net828
*381 clknet_1_1__leaf_net830
*382 clknet_1_1__leaf_net860
*383 clknet_1_1__leaf_net866
*384 clknet_1_1__leaf_net867
*385 clknet_1_1__leaf_net880
*386 clknet_1_1__leaf_net881
*387 clknet_1_1__leaf_net899
*388 clknet_1_1__leaf_net900
*389 clknet_1_1__leaf_net919
*390 clknet_1_1__leaf_net920
*391 clknet_1_1__leaf_net987
*392 clknet_1_1__leaf_net990
*393 clknet_1_1__leaf_net992
*394 clknet_1_1__leaf_net995
*395 clknet_4_0_0_clk
*396 clknet_4_10_0_clk
*397 clknet_4_11_0_clk
*398 clknet_4_12_0_clk
*399 clknet_4_13_0_clk
*400 clknet_4_14_0_clk
*401 clknet_4_15_0_clk
*402 clknet_4_1_0_clk
*403 clknet_4_2_0_clk
*404 clknet_4_3_0_clk
*405 clknet_4_4_0_clk
*406 clknet_4_5_0_clk
*407 clknet_4_6_0_clk
*408 clknet_4_7_0_clk
*409 clknet_4_8_0_clk
*410 clknet_4_9_0_clk
*411 net0
*412 net1
*413 net10
*414 net100
*415 net1000
*416 net1001
*417 net1002
*418 net1003
*419 net1004
*420 net1005
*421 net1006
*422 net1007
*423 net1008
*424 net1009
*425 net101
*426 net1010
*427 net1011
*428 net1012
*429 net1013
*430 net1014
*431 net1015
*432 net1016
*433 net1017
*434 net1018
*435 net1019
*436 net102
*437 net1020
*438 net1021
*439 net1022
*440 net1023
*441 net1024
*442 net1025
*443 net1026
*444 net1027
*445 net1028
*446 net1029
*447 net103
*448 net1030
*449 net1031
*450 net1032
*451 net1033
*452 net1034
*453 net1035
*454 net1036
*455 net1037
*456 net1038
*457 net1039
*458 net104
*459 net1040
*460 net1041
*461 net1042
*462 net1043
*463 net1044
*464 net1045
*465 net1046
*466 net1047
*467 net1048
*468 net1049
*469 net105
*470 net1050
*471 net1051
*472 net1052
*473 net1053
*474 net1054
*475 net1055
*476 net1056
*477 net1057
*478 net1058
*479 net1059
*480 net106
*481 net1060
*482 net1061
*483 net1062
*484 net1063
*485 net1064
*486 net1065
*487 net1066
*488 net1067
*489 net1068
*490 net1069
*491 net107
*492 net1070
*493 net1071
*494 net1072
*495 net1073
*496 net1074
*497 net1075
*498 net1076
*499 net1077
*500 net1078
*501 net1079
*502 net108
*503 net1080
*504 net1081
*505 net1082
*506 net1083
*507 net1084
*508 net1085
*509 net1086
*510 net1087
*511 net1088
*512 net1089
*513 net109
*514 net1090
*515 net1091
*516 net1092
*517 net1093
*518 net1094
*519 net1096
*520 net1097
*521 net1098
*522 net1099
*523 net11
*524 net110
*525 net1100
*526 net1101
*527 net1102
*528 net1103
*529 net1104
*530 net1105
*531 net1106
*532 net1107
*533 net1108
*534 net1109
*535 net111
*536 net112
*537 net113
*538 net114
*539 net115
*540 net116
*541 net117
*542 net118
*543 net119
*544 net12
*545 net120
*546 net121
*547 net122
*548 net123
*549 net124
*550 net125
*551 net126
*552 net127
*553 net128
*554 net129
*555 net13
*556 net130
*557 net131
*558 net132
*559 net133
*560 net134
*561 net135
*562 net136
*563 net137
*564 net138
*565 net139
*566 net14
*567 net140
*568 net141
*569 net142
*570 net143
*571 net144
*572 net145
*573 net146
*574 net147
*575 net148
*576 net149
*577 net15
*578 net150
*579 net151
*580 net152
*581 net153
*582 net154
*583 net155
*584 net156
*585 net157
*586 net158
*587 net159
*588 net16
*589 net160
*590 net161
*591 net162
*592 net163
*593 net164
*594 net165
*595 net166
*596 net167
*597 net168
*598 net169
*599 net17
*600 net170
*601 net171
*602 net172
*603 net173
*604 net174
*605 net175
*606 net176
*607 net177
*608 net178
*609 net179
*610 net18
*611 net180
*612 net181
*613 net182
*614 net183
*615 net184
*616 net185
*617 net186
*618 net187
*619 net188
*620 net189
*621 net19
*622 net190
*623 net191
*624 net192
*625 net193
*626 net194
*627 net195
*628 net196
*629 net197
*630 net198
*631 net199
*632 net2
*633 net20
*634 net200
*635 net201
*636 net202
*637 net203
*638 net204
*639 net205
*640 net206
*641 net207
*642 net208
*643 net209
*644 net21
*645 net210
*646 net211
*647 net212
*648 net213
*649 net214
*650 net215
*651 net216
*652 net217
*653 net218
*654 net219
*655 net22
*656 net220
*657 net221
*658 net222
*659 net223
*660 net224
*661 net225
*662 net226
*663 net227
*664 net228
*665 net229
*666 net23
*667 net230
*668 net231
*669 net232
*670 net233
*671 net234
*672 net235
*673 net236
*674 net237
*675 net238
*676 net239
*677 net24
*678 net240
*679 net241
*680 net242
*681 net243
*682 net244
*683 net245
*684 net246
*685 net247
*686 net248
*687 net249
*688 net25
*689 net250
*690 net251
*691 net252
*692 net253
*693 net254
*694 net255
*695 net256
*696 net257
*697 net258
*698 net259
*699 net26
*700 net260
*701 net261
*702 net262
*703 net263
*704 net264
*705 net265
*706 net266
*707 net267
*708 net268
*709 net269
*710 net27
*711 net270
*712 net271
*713 net272
*714 net273
*715 net274
*716 net275
*717 net276
*718 net277
*719 net278
*720 net279
*721 net28
*722 net280
*723 net281
*724 net282
*725 net283
*726 net284
*727 net285
*728 net286
*729 net287
*730 net288
*731 net289
*732 net29
*733 net290
*734 net291
*735 net292
*736 net293
*737 net294
*738 net295
*739 net296
*740 net297
*741 net298
*742 net299
*743 net3
*744 net30
*745 net300
*746 net301
*747 net302
*748 net303
*749 net304
*750 net305
*751 net306
*752 net307
*753 net308
*754 net309
*755 net31
*756 net310
*757 net311
*758 net312
*759 net313
*760 net314
*761 net315
*762 net316
*763 net317
*764 net318
*765 net319
*766 net32
*767 net320
*768 net321
*769 net322
*770 net323
*771 net324
*772 net325
*773 net326
*774 net327
*775 net328
*776 net329
*777 net33
*778 net330
*779 net331
*780 net332
*781 net333
*782 net334
*783 net335
*784 net336
*785 net337
*786 net338
*787 net339
*788 net34
*789 net340
*790 net341
*791 net342
*792 net343
*793 net344
*794 net345
*795 net346
*796 net347
*797 net348
*798 net349
*799 net35
*800 net350
*801 net351
*802 net352
*803 net353
*804 net354
*805 net355
*806 net356
*807 net357
*808 net358
*809 net359
*810 net36
*811 net360
*812 net361
*813 net362
*814 net363
*815 net364
*816 net365
*817 net366
*818 net367
*819 net368
*820 net369
*821 net37
*822 net370
*823 net371
*824 net372
*825 net373
*826 net374
*827 net375
*828 net376
*829 net377
*830 net378
*831 net379
*832 net38
*833 net380
*834 net381
*835 net382
*836 net383
*837 net384
*838 net385
*839 net386
*840 net387
*841 net388
*842 net389
*843 net39
*844 net390
*845 net391
*846 net392
*847 net393
*848 net394
*849 net395
*850 net396
*851 net397
*852 net398
*853 net399
*854 net4
*855 net40
*856 net400
*857 net401
*858 net402
*859 net403
*860 net404
*861 net405
*862 net406
*863 net407
*864 net408
*865 net409
*866 net41
*867 net410
*868 net411
*869 net412
*870 net413
*871 net414
*872 net415
*873 net416
*874 net417
*875 net418
*876 net419
*877 net42
*878 net420
*879 net421
*880 net422
*881 net423
*882 net424
*883 net425
*884 net426
*885 net427
*886 net428
*887 net429
*888 net43
*889 net430
*890 net431
*891 net432
*892 net433
*893 net434
*894 net435
*895 net436
*896 net437
*897 net438
*898 net439
*899 net44
*900 net440
*901 net441
*902 net442
*903 net443
*904 net444
*905 net445
*906 net446
*907 net447
*908 net448
*909 net449
*910 net45
*911 net450
*912 net451
*913 net452
*914 net453
*915 net454
*916 net455
*917 net456
*918 net457
*919 net458
*920 net459
*921 net46
*922 net460
*923 net461
*924 net462
*925 net463
*926 net464
*927 net465
*928 net466
*929 net467
*930 net468
*931 net469
*932 net47
*933 net470
*934 net471
*935 net472
*936 net473
*937 net474
*938 net475
*939 net476
*940 net477
*941 net478
*942 net479
*943 net48
*944 net480
*945 net481
*946 net482
*947 net483
*948 net484
*949 net485
*950 net486
*951 net487
*952 net488
*953 net489
*954 net49
*955 net490
*956 net491
*957 net492
*958 net493
*959 net494
*960 net495
*961 net496
*962 net497
*963 net498
*964 net499
*965 net5
*966 net50
*967 net500
*968 net501
*969 net502
*970 net503
*971 net504
*972 net505
*973 net506
*974 net507
*975 net508
*976 net509
*977 net51
*978 net510
*979 net511
*980 net512
*981 net513
*982 net514
*983 net515
*984 net516
*985 net517
*986 net518
*987 net519
*988 net52
*989 net520
*990 net521
*991 net522
*992 net523
*993 net524
*994 net525
*995 net526
*996 net527
*997 net528
*998 net529
*999 net53
*1000 net530
*1001 net531
*1002 net532
*1003 net533
*1004 net534
*1005 net535
*1006 net536
*1007 net537
*1008 net538
*1009 net539
*1010 net54
*1011 net540
*1012 net541
*1013 net542
*1014 net543
*1015 net544
*1016 net545
*1017 net546
*1018 net547
*1019 net548
*1020 net549
*1021 net55
*1022 net550
*1023 net551
*1024 net552
*1025 net553
*1026 net554
*1027 net555
*1028 net556
*1029 net557
*1030 net558
*1031 net559
*1032 net56
*1033 net560
*1034 net561
*1035 net562
*1036 net563
*1037 net564
*1038 net565
*1039 net566
*1040 net567
*1041 net568
*1042 net569
*1043 net57
*1044 net570
*1045 net571
*1046 net572
*1047 net573
*1048 net574
*1049 net575
*1050 net576
*1051 net577
*1052 net578
*1053 net579
*1054 net58
*1055 net580
*1056 net581
*1057 net582
*1058 net583
*1059 net584
*1060 net585
*1061 net586
*1062 net587
*1063 net588
*1064 net589
*1065 net59
*1066 net590
*1067 net591
*1068 net592
*1069 net593
*1070 net594
*1071 net595
*1072 net596
*1073 net597
*1074 net598
*1075 net599
*1076 net6
*1077 net60
*1078 net600
*1079 net601
*1080 net602
*1081 net603
*1082 net604
*1083 net605
*1084 net606
*1085 net607
*1086 net608
*1087 net609
*1088 net61
*1089 net610
*1090 net611
*1091 net612
*1092 net613
*1093 net614
*1094 net615
*1095 net616
*1096 net617
*1097 net618
*1098 net619
*1099 net62
*1100 net620
*1101 net621
*1102 net622
*1103 net623
*1104 net624
*1105 net625
*1106 net626
*1107 net627
*1108 net628
*1109 net629
*1110 net63
*1111 net630
*1112 net631
*1113 net632
*1114 net633
*1115 net634
*1116 net635
*1117 net636
*1118 net637
*1119 net638
*1120 net639
*1121 net64
*1122 net640
*1123 net641
*1124 net642
*1125 net643
*1126 net644
*1127 net645
*1128 net646
*1129 net647
*1130 net648
*1131 net649
*1132 net65
*1133 net650
*1134 net651
*1135 net652
*1136 net653
*1137 net654
*1138 net655
*1139 net656
*1140 net657
*1141 net658
*1142 net659
*1143 net66
*1144 net660
*1145 net661
*1146 net662
*1147 net663
*1148 net664
*1149 net665
*1150 net666
*1151 net667
*1152 net668
*1153 net669
*1154 net67
*1155 net670
*1156 net671
*1157 net672
*1158 net673
*1159 net674
*1160 net675
*1161 net676
*1162 net677
*1163 net678
*1164 net679
*1165 net68
*1166 net680
*1167 net681
*1168 net682
*1169 net683
*1170 net684
*1171 net685
*1172 net686
*1173 net687
*1174 net688
*1175 net689
*1176 net69
*1177 net690
*1178 net691
*1179 net692
*1180 net693
*1181 net694
*1182 net695
*1183 net696
*1184 net697
*1185 net698
*1186 net699
*1187 net7
*1188 net70
*1189 net700
*1190 net701
*1191 net702
*1192 net703
*1193 net704
*1194 net705
*1195 net706
*1196 net707
*1197 net708
*1198 net709
*1199 net71
*1200 net710
*1201 net711
*1202 net712
*1203 net713
*1204 net714
*1205 net715
*1206 net716
*1207 net717
*1208 net718
*1209 net719
*1210 net72
*1211 net720
*1212 net721
*1213 net722
*1214 net723
*1215 net724
*1216 net725
*1217 net726
*1218 net727
*1219 net728
*1220 net729
*1221 net73
*1222 net730
*1223 net731
*1224 net732
*1225 net733
*1226 net734
*1227 net735
*1228 net736
*1229 net737
*1230 net738
*1231 net739
*1232 net74
*1233 net740
*1234 net741
*1235 net742
*1236 net743
*1237 net744
*1238 net745
*1239 net746
*1240 net747
*1241 net748
*1242 net749
*1243 net75
*1244 net750
*1245 net751
*1246 net752
*1247 net753
*1248 net754
*1249 net755
*1250 net756
*1251 net757
*1252 net758
*1253 net759
*1254 net76
*1255 net760
*1256 net761
*1257 net762
*1258 net763
*1259 net764
*1260 net765
*1261 net766
*1262 net767
*1263 net768
*1264 net769
*1265 net77
*1266 net770
*1267 net771
*1268 net772
*1269 net773
*1270 net774
*1271 net775
*1272 net776
*1273 net777
*1274 net778
*1275 net779
*1276 net78
*1277 net780
*1278 net781
*1279 net782
*1280 net783
*1281 net784
*1282 net785
*1283 net786
*1284 net787
*1285 net788
*1286 net789
*1287 net79
*1288 net790
*1289 net791
*1290 net792
*1291 net793
*1292 net794
*1293 net795
*1294 net796
*1295 net797
*1296 net798
*1297 net799
*1298 net8
*1299 net80
*1300 net800
*1301 net801
*1302 net802
*1303 net803
*1304 net804
*1305 net805
*1306 net806
*1307 net807
*1308 net808
*1309 net809
*1310 net81
*1311 net810
*1312 net811
*1313 net812
*1314 net813
*1315 net814
*1316 net815
*1317 net816
*1318 net817
*1319 net818
*1320 net819
*1321 net82
*1322 net820
*1323 net821
*1324 net822
*1325 net823
*1326 net824
*1327 net825
*1328 net826
*1329 net827
*1330 net828
*1331 net829
*1332 net83
*1333 net830
*1334 net831
*1335 net832
*1336 net833
*1337 net834
*1338 net835
*1339 net836
*1340 net837
*1341 net838
*1342 net839
*1343 net84
*1344 net840
*1345 net841
*1346 net842
*1347 net843
*1348 net844
*1349 net845
*1350 net846
*1351 net847
*1352 net848
*1353 net849
*1354 net85
*1355 net850
*1356 net851
*1357 net852
*1358 net853
*1359 net854
*1360 net855
*1361 net856
*1362 net857
*1363 net858
*1364 net859
*1365 net86
*1366 net860
*1367 net861
*1368 net862
*1369 net863
*1370 net864
*1371 net865
*1372 net866
*1373 net867
*1374 net868
*1375 net869
*1376 net87
*1377 net870
*1378 net871
*1379 net872
*1380 net873
*1381 net874
*1382 net875
*1383 net876
*1384 net877
*1385 net878
*1386 net879
*1387 net88
*1388 net880
*1389 net881
*1390 net882
*1391 net883
*1392 net884
*1393 net885
*1394 net886
*1395 net887
*1396 net888
*1397 net889
*1398 net89
*1399 net890
*1400 net891
*1401 net892
*1402 net893
*1403 net894
*1404 net895
*1405 net896
*1406 net897
*1407 net898
*1408 net899
*1409 net9
*1410 net90
*1411 net900
*1412 net901
*1413 net902
*1414 net903
*1415 net904
*1416 net905
*1417 net906
*1418 net907
*1419 net908
*1420 net909
*1421 net91
*1422 net910
*1423 net911
*1424 net912
*1425 net913
*1426 net914
*1427 net915
*1428 net916
*1429 net917
*1430 net918
*1431 net919
*1432 net92
*1433 net920
*1434 net921
*1435 net922
*1436 net923
*1437 net924
*1438 net925
*1439 net926
*1440 net927
*1441 net928
*1442 net929
*1443 net93
*1444 net930
*1445 net931
*1446 net932
*1447 net933
*1448 net934
*1449 net935
*1450 net936
*1451 net937
*1452 net938
*1453 net939
*1454 net94
*1455 net940
*1456 net941
*1457 net942
*1458 net943
*1459 net944
*1460 net945
*1461 net946
*1462 net947
*1463 net948
*1464 net949
*1465 net95
*1466 net950
*1467 net951
*1468 net952
*1469 net953
*1470 net954
*1471 net955
*1472 net956
*1473 net957
*1474 net958
*1475 net959
*1476 net96
*1477 net960
*1478 net961
*1479 net962
*1480 net963
*1481 net964
*1482 net965
*1483 net966
*1484 net967
*1485 net968
*1486 net969
*1487 net97
*1488 net970
*1489 net971
*1490 net972
*1491 net973
*1492 net974
*1493 net975
*1494 net976
*1495 net977
*1496 net978
*1497 net979
*1498 net98
*1499 net980
*1500 net981
*1501 net982
*1502 net983
*1503 net984
*1504 net985
*1505 net986
*1506 net987
*1507 net988
*1508 net989
*1509 net99
*1510 net990
*1511 net991
*1512 net992
*1513 net993
*1514 net994
*1515 net995
*1516 net996
*1517 net997
*1518 net998
*1519 net999
*1520 ANTENNA_1
*1521 ANTENNA_c100_A
*1522 ANTENNA_c101_CLK_N
*1523 ANTENNA_c102_A
*1524 ANTENNA_c103_A1
*1525 ANTENNA_c103_X
*1526 ANTENNA_c104_A2
*1527 ANTENNA_c104_B1
*1528 ANTENNA_c106_A2
*1529 ANTENNA_c107_CLK
*1530 ANTENNA_c110_B
*1531 ANTENNA_c112_A
*1532 ANTENNA_c113_A
*1533 ANTENNA_c115_B1
*1534 ANTENNA_c117_A1
*1535 ANTENNA_c117_S
*1536 ANTENNA_c119_A2
*1537 ANTENNA_c119_A3
*1538 ANTENNA_c120_A2
*1539 ANTENNA_c120_B1
*1540 ANTENNA_c121_CLK_N
*1541 ANTENNA_c121_RESET_B
*1542 ANTENNA_c123_CLK
*1543 ANTENNA_c124_A1
*1544 ANTENNA_c125_A1
*1545 ANTENNA_c125_A3
*1546 ANTENNA_c125_A4
*1547 ANTENNA_c125_B1
*1548 ANTENNA_c127_A3
*1549 ANTENNA_c128_A1
*1550 ANTENNA_c129_CLK_N
*1551 ANTENNA_c130_A2
*1552 ANTENNA_c131_A3
*1553 ANTENNA_c131_S1
*1554 ANTENNA_c132_B
*1555 ANTENNA_c132_X
*1556 ANTENNA_c133_A
*1557 ANTENNA_c135_Y
*1558 ANTENNA_c136_A1
*1559 ANTENNA_c136_B1
*1560 ANTENNA_c137_A
*1561 ANTENNA_c137_B
*1562 ANTENNA_c137_Y
*1563 ANTENNA_c138_A
*1564 ANTENNA_c138_B
*1565 ANTENNA_c139_A1
*1566 ANTENNA_c139_A2
*1567 ANTENNA_c139_B1
*1568 ANTENNA_c140_B1
*1569 ANTENNA_c141_B
*1570 ANTENNA_c141_Y
*1571 ANTENNA_c142_A2
*1572 ANTENNA_c142_A3
*1573 ANTENNA_c142_B1
*1574 ANTENNA_c143_Y
*1575 ANTENNA_c144_B1
*1576 ANTENNA_c146_A2
*1577 ANTENNA_c146_B1_N
*1578 ANTENNA_c147_A1
*1579 ANTENNA_c147_A2
*1580 ANTENNA_c150_B1
*1581 ANTENNA_c151_Y
*1582 ANTENNA_c152_X
*1583 ANTENNA_c153_CLK
*1584 ANTENNA_c153_D
*1585 ANTENNA_c153_SCD
*1586 ANTENNA_c154_A
*1587 ANTENNA_c155_X
*1588 ANTENNA_c157_A
*1589 ANTENNA_c157_B
*1590 ANTENNA_c162_A1
*1591 ANTENNA_c163_A
*1592 ANTENNA_c165_A
*1593 ANTENNA_c166_A2
*1594 ANTENNA_c166_S0
*1595 ANTENNA_c166_S1
*1596 ANTENNA_c168_B1
*1597 ANTENNA_c173_A
*1598 ANTENNA_c175_A2
*1599 ANTENNA_c175_S1
*1600 ANTENNA_c177_Y
*1601 ANTENNA_c178_B
*1602 ANTENNA_c178_X
*1603 ANTENNA_c179_B
*1604 ANTENNA_c180_X
*1605 ANTENNA_c181_B
*1606 ANTENNA_c183_A1
*1607 ANTENNA_c184_B
*1608 ANTENNA_c185_A
*1609 ANTENNA_c185_B
*1610 ANTENNA_c188_A
*1611 ANTENNA_c188_B
*1612 ANTENNA_c189_A3
*1613 ANTENNA_c189_S1
*1614 ANTENNA_c192_B1
*1615 ANTENNA_c193_A2
*1616 ANTENNA_c193_S0
*1617 ANTENNA_c193_S1
*1618 ANTENNA_c194_A1
*1619 ANTENNA_c194_A2
*1620 ANTENNA_c194_A3
*1621 ANTENNA_c194_S0
*1622 ANTENNA_c194_S1
*1623 ANTENNA_c195_B1
*1624 ANTENNA_c197_A2
*1625 ANTENNA_c197_B1_N
*1626 ANTENNA_c197_X
*1627 ANTENNA_c199_B
*1628 ANTENNA_c201_B
*1629 ANTENNA_c202_B
*1630 ANTENNA_c202_X
*1631 ANTENNA_c203_A2
*1632 ANTENNA_c203_A4
*1633 ANTENNA_c203_B1
*1634 ANTENNA_c204_A2
*1635 ANTENNA_c204_A3
*1636 ANTENNA_c204_S1
*1637 ANTENNA_c205_A0
*1638 ANTENNA_c205_A1
*1639 ANTENNA_c206_A1
*1640 ANTENNA_c206_A3
*1641 ANTENNA_c207_B
*1642 ANTENNA_c208_B1
*1643 ANTENNA_c210_Y
*1644 ANTENNA_c213_A3
*1645 ANTENNA_c215_A2
*1646 ANTENNA_c215_B1_N
*1647 ANTENNA_c215_Y
*1648 ANTENNA_c216_A4
*1649 ANTENNA_c216_Y
*1650 ANTENNA_c218_A1
*1651 ANTENNA_c218_A3
*1652 ANTENNA_c220_A1
*1653 ANTENNA_c220_A2
*1654 ANTENNA_c220_B1
*1655 ANTENNA_c222_A1
*1656 ANTENNA_c222_B1_N
*1657 ANTENNA_c225_A
*1658 ANTENNA_c226_A
*1659 ANTENNA_c227_B
*1660 ANTENNA_c228_A2
*1661 ANTENNA_c229_B
*1662 ANTENNA_c230_A1
*1663 ANTENNA_c230_S
*1664 ANTENNA_c230_X
*1665 ANTENNA_c232_B1
*1666 ANTENNA_c232_X
*1667 ANTENNA_c233_B
*1668 ANTENNA_c234_X
*1669 ANTENNA_c235_A0
*1670 ANTENNA_c236_A3
*1671 ANTENNA_c236_A4
*1672 ANTENNA_c236_Y
*1673 ANTENNA_c237_A1
*1674 ANTENNA_c238_A3
*1675 ANTENNA_c239_A
*1676 ANTENNA_c240_A1
*1677 ANTENNA_c240_A3
*1678 ANTENNA_c241_A3
*1679 ANTENNA_c241_S0
*1680 ANTENNA_c242_B1
*1681 ANTENNA_c243_A1
*1682 ANTENNA_c243_A2
*1683 ANTENNA_c243_B1
*1684 ANTENNA_c244_B1
*1685 ANTENNA_c245_A2
*1686 ANTENNA_c246_A3
*1687 ANTENNA_c246_X
*1688 ANTENNA_c247_A2
*1689 ANTENNA_c250_CLK
*1690 ANTENNA_c253_A0
*1691 ANTENNA_c254_CLK_N
*1692 ANTENNA_c254_SCD
*1693 ANTENNA_c254_SET_B
*1694 ANTENNA_c255_CLK_N
*1695 ANTENNA_c255_D
*1696 ANTENNA_c256_A0
*1697 ANTENNA_c256_S1
*1698 ANTENNA_c257_A3
*1699 ANTENNA_c257_S0
*1700 ANTENNA_c258_CLK_N
*1701 ANTENNA_c260_S0
*1702 ANTENNA_c261_A3
*1703 ANTENNA_c262_A3
*1704 ANTENNA_c264_A
*1705 ANTENNA_c264_B
*1706 ANTENNA_c265_B1
*1707 ANTENNA_c265_X
*1708 ANTENNA_c266_X
*1709 ANTENNA_c269_A
*1710 ANTENNA_c269_X
*1711 ANTENNA_c271_A
*1712 ANTENNA_c271_Y
*1713 ANTENNA_c273_X
*1714 ANTENNA_c274_A2
*1715 ANTENNA_c274_B1_N
*1716 ANTENNA_c276_A1
*1717 ANTENNA_c277_A1
*1718 ANTENNA_c277_A3
*1719 ANTENNA_c277_S0
*1720 ANTENNA_c278_A1
*1721 ANTENNA_c278_A3
*1722 ANTENNA_c278_S1
*1723 ANTENNA_c279_B
*1724 ANTENNA_c279_X
*1725 ANTENNA_c280_A2
*1726 ANTENNA_c280_X
*1727 ANTENNA_c281_CLK
*1728 ANTENNA_c281_RESET_B
*1729 ANTENNA_c281_SCD
*1730 ANTENNA_c281_SET_B
*1731 ANTENNA_c282_A1
*1732 ANTENNA_c282_X
*1733 ANTENNA_c284_A0
*1734 ANTENNA_c284_A3
*1735 ANTENNA_c285_X
*1736 ANTENNA_c286_A2
*1737 ANTENNA_c286_A3
*1738 ANTENNA_c288_B
*1739 ANTENNA_c289_A1
*1740 ANTENNA_c289_A2
*1741 ANTENNA_c289_B1
*1742 ANTENNA_c290_A
*1743 ANTENNA_c290_Y
*1744 ANTENNA_c291_B
*1745 ANTENNA_c291_X
*1746 ANTENNA_c292_CLK
*1747 ANTENNA_c292_Q
*1748 ANTENNA_c292_SCD
*1749 ANTENNA_c296_B
*1750 ANTENNA_c297_B
*1751 ANTENNA_c299_A3
*1752 ANTENNA_c299_B1
*1753 ANTENNA_c300_A1
*1754 ANTENNA_c300_A2
*1755 ANTENNA_c300_S0
*1756 ANTENNA_c301_Y
*1757 ANTENNA_c302_Y
*1758 ANTENNA_c303_A1
*1759 ANTENNA_c303_A3
*1760 ANTENNA_c304_X
*1761 ANTENNA_c305_A1
*1762 ANTENNA_c305_S0
*1763 ANTENNA_c305_S1
*1764 ANTENNA_c306_S0
*1765 ANTENNA_c307_CLK_N
*1766 ANTENNA_c307_Q
*1767 ANTENNA_c307_Q_N
*1768 ANTENNA_c307_SCD
*1769 ANTENNA_c307_SET_B
*1770 ANTENNA_c309_A2
*1771 ANTENNA_c310_A1
*1772 ANTENNA_c310_A2
*1773 ANTENNA_c310_B1_N
*1774 ANTENNA_c311_Y
*1775 ANTENNA_c312_X
*1776 ANTENNA_c313_A2
*1777 ANTENNA_c313_B1
*1778 ANTENNA_c314_A
*1779 ANTENNA_c315_B
*1780 ANTENNA_c316_A1
*1781 ANTENNA_c316_A2
*1782 ANTENNA_c316_A3
*1783 ANTENNA_c316_B1
*1784 ANTENNA_c316_X
*1785 ANTENNA_c318_A2
*1786 ANTENNA_c318_B1_N
*1787 ANTENNA_c319_X
*1788 ANTENNA_c320_A0
*1789 ANTENNA_c320_A2
*1790 ANTENNA_c321_A3
*1791 ANTENNA_c322_A
*1792 ANTENNA_c323_A
*1793 ANTENNA_c324_CLK_N
*1794 ANTENNA_c324_Q
*1795 ANTENNA_c324_Q_N
*1796 ANTENNA_c324_SCE
*1797 ANTENNA_c324_SET_B
*1798 ANTENNA_c325_A2
*1799 ANTENNA_c325_A3
*1800 ANTENNA_c325_S0
*1801 ANTENNA_c325_S1
*1802 ANTENNA_c326_A1
*1803 ANTENNA_c328_A2
*1804 ANTENNA_c328_S0
*1805 ANTENNA_c329_A2
*1806 ANTENNA_c330_B
*1807 ANTENNA_c331_X
*1808 ANTENNA_c332_B
*1809 ANTENNA_c332_Y
*1810 ANTENNA_c333_A1
*1811 ANTENNA_c333_A2
*1812 ANTENNA_c333_A3
*1813 ANTENNA_c334_A1
*1814 ANTENNA_c334_A3
*1815 ANTENNA_c334_B1
*1816 ANTENNA_c335_B1
*1817 ANTENNA_c336_B
*1818 ANTENNA_c337_A0
*1819 ANTENNA_c337_A3
*1820 ANTENNA_c337_S1
*1821 ANTENNA_c338_A2
*1822 ANTENNA_c338_B1
*1823 ANTENNA_c339_A0
*1824 ANTENNA_c339_A3
*1825 ANTENNA_c339_S0
*1826 ANTENNA_c339_S1
*1827 ANTENNA_c340_B
*1828 ANTENNA_c340_Y
*1829 ANTENNA_c341_A2
*1830 ANTENNA_c343_A1
*1831 ANTENNA_c343_A2
*1832 ANTENNA_c343_B1_N
*1833 ANTENNA_c343_Y
*1834 ANTENNA_c344_A1
*1835 ANTENNA_c344_A2
*1836 ANTENNA_c344_B1_N