*SPEF "ieee 1481-1999"
*DESIGN "netlist_2"
*DATE "19:26:27 Tuesday July 23, 2024"
*VENDOR "The OpenROAD Project"
*PROGRAM "OpenROAD"
*VERSION "d423155d69de7f683a23f6916ead418a615ad4ad"
*DESIGN_FLOW "NAME_SCOPE LOCAL" "PIN_CAP NONE"
*DIVIDER /
*DELIMITER :
*BUS_DELIMITER []
*T_UNIT 1 NS
*C_UNIT 1 PF
*R_UNIT 1 OHM
*L_UNIT 1 HENRY

*NAME_MAP
*3 clk
*4 in0
*5 in1
*6 in10
*7 in11
*8 in12
*9 in13
*10 in14
*11 in15
*12 in16
*13 in17
*14 in18
*15 in19
*16 in2
*17 in20
*18 in21
*19 in22
*20 in23
*21 in24
*22 in25
*23 in26
*24 in27
*25 in28
*26 in29
*27 in3
*28 in30
*29 in31
*30 in32
*31 in33
*32 in34
*33 in35
*34 in36
*35 in37
*36 in38
*37 in39
*38 in4
*39 in40
*40 in41
*41 in42
*42 in43
*43 in44
*44 in45
*45 in46
*46 in47
*47 in48
*48 in49
*49 in5
*50 in50
*51 in51
*52 in6
*53 in7
*54 in8
*55 in9
*56 out0
*57 out1
*58 out10
*59 out11
*60 out12
*61 out13
*62 out14
*63 out15
*64 out16
*65 out17
*66 out18
*67 out19
*68 out2
*69 out20
*70 out21
*71 out22
*72 out23
*73 out24
*74 out25
*75 out26
*76 out27
*77 out28
*78 out29
*79 out3
*80 out30
*81 out31
*82 out32
*83 out33
*84 out34
*85 out35
*86 out36
*87 out37
*88 out38
*89 out39
*90 out4
*91 out40
*92 out41
*93 out42
*94 out43
*95 out44
*96 out45
*97 out46
*98 out47
*99 out48
*100 out49
*101 out5
*102 out50
*103 out51
*104 out6
*105 out7
*106 out8
*107 out9
*108 rst
*109 clknet_0_clk
*110 clknet_0_net358
*111 clknet_0_net359
*112 clknet_0_net360
*113 clknet_0_net366
*114 clknet_0_net370
*115 clknet_0_net371
*116 clknet_0_net374
*117 clknet_0_net380
*118 clknet_0_net383
*119 clknet_0_net385
*120 clknet_0_net412
*121 clknet_0_net477
*122 clknet_0_net515
*123 clknet_0_net518
*124 clknet_0_net532
*125 clknet_0_net533
*126 clknet_0_net543
*127 clknet_0_net611
*128 clknet_0_net653
*129 clknet_0_net739
*130 clknet_0_net756
*131 clknet_0_net761
*132 clknet_0_net765
*133 clknet_1_0__leaf_net358
*134 clknet_1_0__leaf_net359
*135 clknet_1_0__leaf_net360
*136 clknet_1_0__leaf_net366
*137 clknet_1_0__leaf_net370
*138 clknet_1_0__leaf_net371
*139 clknet_1_0__leaf_net374
*140 clknet_1_0__leaf_net380
*141 clknet_1_0__leaf_net383
*142 clknet_1_0__leaf_net385
*143 clknet_1_0__leaf_net412
*144 clknet_1_0__leaf_net477
*145 clknet_1_0__leaf_net515
*146 clknet_1_0__leaf_net518
*147 clknet_1_0__leaf_net532
*148 clknet_1_0__leaf_net533
*149 clknet_1_0__leaf_net543
*150 clknet_1_0__leaf_net611
*151 clknet_1_0__leaf_net653
*152 clknet_1_0__leaf_net739
*153 clknet_1_0__leaf_net756
*154 clknet_1_0__leaf_net761
*155 clknet_1_0__leaf_net765
*156 clknet_1_1__leaf_net358
*157 clknet_1_1__leaf_net359
*158 clknet_1_1__leaf_net360
*159 clknet_1_1__leaf_net366
*160 clknet_1_1__leaf_net370
*161 clknet_1_1__leaf_net371
*162 clknet_1_1__leaf_net374
*163 clknet_1_1__leaf_net380
*164 clknet_1_1__leaf_net383
*165 clknet_1_1__leaf_net385
*166 clknet_1_1__leaf_net412
*167 clknet_1_1__leaf_net477
*168 clknet_1_1__leaf_net515
*169 clknet_1_1__leaf_net518
*170 clknet_1_1__leaf_net532
*171 clknet_1_1__leaf_net533
*172 clknet_1_1__leaf_net543
*173 clknet_1_1__leaf_net611
*174 clknet_1_1__leaf_net653
*175 clknet_1_1__leaf_net739
*176 clknet_1_1__leaf_net756
*177 clknet_1_1__leaf_net761
*178 clknet_1_1__leaf_net765
*179 clknet_4_0_0_clk
*180 clknet_4_10_0_clk
*181 clknet_4_11_0_clk
*182 clknet_4_12_0_clk
*183 clknet_4_13_0_clk
*184 clknet_4_14_0_clk
*185 clknet_4_15_0_clk
*186 clknet_4_1_0_clk
*187 clknet_4_2_0_clk
*188 clknet_4_3_0_clk
*189 clknet_4_4_0_clk
*190 clknet_4_5_0_clk
*191 clknet_4_6_0_clk
*192 clknet_4_7_0_clk
*193 clknet_4_8_0_clk
*194 clknet_4_9_0_clk
*195 net0
*196 net1
*197 net10
*198 net100
*199 net101
*200 net102
*201 net103
*202 net104
*203 net105
*204 net106
*205 net107
*206 net108
*207 net109
*208 net11
*209 net110
*210 net111
*211 net112
*212 net113
*213 net114
*214 net115
*215 net116
*216 net117
*217 net118
*218 net119
*219 net12
*220 net120
*221 net121
*222 net122
*223 net123
*224 net124
*225 net125
*226 net126
*227 net127
*228 net128
*229 net129
*230 net13
*231 net130
*232 net131
*233 net132
*234 net133
*235 net134
*236 net135
*237 net136
*238 net137
*239 net138
*240 net139
*241 net14
*242 net140
*243 net141
*244 net142
*245 net143
*246 net144
*247 net145
*248 net146
*249 net147
*250 net148
*251 net149
*252 net15
*253 net150
*254 net151
*255 net152
*256 net153
*257 net154
*258 net155
*259 net156
*260 net157
*261 net158
*262 net159
*263 net16
*264 net160
*265 net161
*266 net162
*267 net163
*268 net164
*269 net165
*270 net166
*271 net167
*272 net168
*273 net169
*274 net17
*275 net170
*276 net171
*277 net172
*278 net173
*279 net174
*280 net175
*281 net176
*282 net177
*283 net178
*284 net179
*285 net18
*286 net180
*287 net181
*288 net182
*289 net183
*290 net184
*291 net185
*292 net186
*293 net187
*294 net188
*295 net189
*296 net19
*297 net190
*298 net191
*299 net192
*300 net193
*301 net194
*302 net195
*303 net196
*304 net197
*305 net198
*306 net199
*307 net2
*308 net20
*309 net200
*310 net201
*311 net202
*312 net203
*313 net204
*314 net205
*315 net206
*316 net207
*317 net208
*318 net209
*319 net21
*320 net210
*321 net211
*322 net212
*323 net213
*324 net214
*325 net215
*326 net216
*327 net217
*328 net218
*329 net219
*330 net22
*331 net220
*332 net221
*333 net222
*334 net223
*335 net224
*336 net225
*337 net226
*338 net227
*339 net228
*340 net229
*341 net23
*342 net230
*343 net231
*344 net232
*345 net233
*346 net234
*347 net235
*348 net236
*349 net237
*350 net238
*351 net239
*352 net24
*353 net240
*354 net241
*355 net242
*356 net243
*357 net244
*358 net245
*359 net246
*360 net247
*361 net248
*362 net249
*363 net25
*364 net250
*365 net251
*366 net252
*367 net253
*368 net254
*369 net255
*370 net256
*371 net257
*372 net258
*373 net259
*374 net26
*375 net260
*376 net261
*377 net262
*378 net263
*379 net264
*380 net265
*381 net266
*382 net267
*383 net268
*384 net269
*385 net27
*386 net270
*387 net271
*388 net272
*389 net273
*390 net274
*391 net275
*392 net276
*393 net277
*394 net278
*395 net279
*396 net28
*397 net280
*398 net281
*399 net282
*400 net283
*401 net284
*402 net285
*403 net286
*404 net287
*405 net288
*406 net289
*407 net29
*408 net290
*409 net291
*410 net292
*411 net293
*412 net294
*413 net295
*414 net296
*415 net297
*416 net298
*417 net299
*418 net3
*419 net30
*420 net300
*421 net301
*422 net302
*423 net303
*424 net304
*425 net305
*426 net306
*427 net307
*428 net308
*429 net309
*430 net31
*431 net310
*432 net311
*433 net312
*434 net313
*435 net314
*436 net315
*437 net316
*438 net317
*439 net318
*440 net319
*441 net32
*442 net320
*443 net321
*444 net322
*445 net323
*446 net324
*447 net325
*448 net326
*449 net327
*450 net328
*451 net329
*452 net33
*453 net330
*454 net331
*455 net332
*456 net333
*457 net334
*458 net335
*459 net336
*460 net337
*461 net338
*462 net339
*463 net34
*464 net340
*465 net341
*466 net342
*467 net343
*468 net344
*469 net345
*470 net346
*471 net347
*472 net348
*473 net349
*474 net35
*475 net350
*476 net351
*477 net352
*478 net353
*479 net354
*480 net355
*481 net356
*482 net357
*483 net358
*484 net359
*485 net36
*486 net360
*487 net361
*488 net362
*489 net363
*490 net364
*491 net365
*492 net366
*493 net367
*494 net368
*495 net369
*496 net37
*497 net370
*498 net371
*499 net372
*500 net373
*501 net374
*502 net375
*503 net376
*504 net377
*505 net378
*506 net379
*507 net38
*508 net380
*509 net381
*510 net382
*511 net383
*512 net384
*513 net385
*514 net386
*515 net387
*516 net388
*517 net389
*518 net39
*519 net390
*520 net391
*521 net392
*522 net393
*523 net394
*524 net395
*525 net396
*526 net397
*527 net398
*528 net399
*529 net4
*530 net40
*531 net400
*532 net401
*533 net402
*534 net403
*535 net404
*536 net405
*537 net406
*538 net407
*539 net408
*540 net409
*541 net41
*542 net410
*543 net411
*544 net412
*545 net413
*546 net414
*547 net415
*548 net416
*549 net417
*550 net418
*551 net419
*552 net42
*553 net420
*554 net421
*555 net422
*556 net423
*557 net424
*558 net425
*559 net426
*560 net427
*561 net428
*562 net429
*563 net43
*564 net430
*565 net431
*566 net432
*567 net433
*568 net434
*569 net435
*570 net436
*571 net437
*572 net438
*573 net439
*574 net44
*575 net440
*576 net441
*577 net442
*578 net443
*579 net444
*580 net445
*581 net446
*582 net447
*583 net448
*584 net449
*585 net45
*586 net450
*587 net451
*588 net452
*589 net453
*590 net454
*591 net455
*592 net456
*593 net457
*594 net458
*595 net459
*596 net46
*597 net460
*598 net461
*599 net462
*600 net463
*601 net464
*602 net465
*603 net466
*604 net467
*605 net468
*606 net469
*607 net47
*608 net470
*609 net471
*610 net472
*611 net473
*612 net474
*613 net475
*614 net476
*615 net477
*616 net478
*617 net479
*618 net48
*619 net480
*620 net481
*621 net482
*622 net483
*623 net484
*624 net485
*625 net486
*626 net487
*627 net488
*628 net489
*629 net49
*630 net490
*631 net491
*632 net492
*633 net493
*634 net494
*635 net495
*636 net496
*637 net497
*638 net498
*639 net499
*640 net5
*641 net50
*642 net500
*643 net501
*644 net502
*645 net503
*646 net504
*647 net505
*648 net506
*649 net507
*650 net508
*651 net509
*652 net51
*653 net510
*654 net511
*655 net512
*656 net513
*657 net514
*658 net515
*659 net516
*660 net517
*661 net518
*662 net519
*663 net52
*664 net520
*665 net521
*666 net522
*667 net523
*668 net524
*669 net525
*670 net526
*671 net527
*672 net528
*673 net529
*674 net53
*675 net530
*676 net531
*677 net532
*678 net533
*679 net534
*680 net535
*681 net536
*682 net537
*683 net538
*684 net539
*685 net54
*686 net540
*687 net541
*688 net542
*689 net543
*690 net544
*691 net545
*692 net546
*693 net547
*694 net548
*695 net549
*696 net55
*697 net550
*698 net551
*699 net552
*700 net553
*701 net554
*702 net555
*703 net556
*704 net557
*705 net558
*706 net559
*707 net56
*708 net560
*709 net561
*710 net562
*711 net563
*712 net564
*713 net565
*714 net566
*715 net567
*716 net568
*717 net569
*718 net57
*719 net570
*720 net571
*721 net572
*722 net573
*723 net574
*724 net575
*725 net576
*726 net577
*727 net578
*728 net579
*729 net58
*730 net580
*731 net581
*732 net582
*733 net583
*734 net584
*735 net585
*736 net586
*737 net587
*738 net588
*739 net589
*740 net59
*741 net590
*742 net591
*743 net592
*744 net593
*745 net594
*746 net595
*747 net596
*748 net597
*749 net598
*750 net599
*751 net6
*752 net60
*753 net600
*754 net601
*755 net602
*756 net603
*757 net604
*758 net605
*759 net606
*760 net607
*761 net608
*762 net609
*763 net61
*764 net610
*765 net611
*766 net612
*767 net613
*768 net614
*769 net615
*770 net616
*771 net617
*772 net618
*773 net619
*774 net62
*775 net620
*776 net621
*777 net622
*778 net623
*779 net624
*780 net625
*781 net626
*782 net627
*783 net628
*784 net629
*785 net63
*786 net630
*787 net631
*788 net632
*789 net633
*790 net634
*791 net635
*792 net636
*793 net637
*794 net638
*795 net639
*796 net64
*797 net640
*798 net641
*799 net642
*800 net643
*801 net644
*802 net645
*803 net646
*804 net647
*805 net648
*806 net649
*807 net65
*808 net650
*809 net651
*810 net652
*811 net653
*812 net654
*813 net655
*814 net656
*815 net657
*816 net658
*817 net659
*818 net66
*819 net660
*820 net661
*821 net662
*822 net663
*823 net664
*824 net665
*825 net666
*826 net667
*827 net668
*828 net669
*829 net67
*830 net670
*831 net671
*832 net672
*833 net673
*834 net674
*835 net675
*836 net676
*837 net677
*838 net678
*839 net679
*840 net68
*841 net680
*842 net681
*843 net682
*844 net683
*845 net684
*846 net685
*847 net686
*848 net687
*849 net688
*850 net689
*851 net69
*852 net690
*853 net691
*854 net692
*855 net693
*856 net694
*857 net695
*858 net696
*859 net697
*860 net698
*861 net699
*862 net7
*863 net70
*864 net700
*865 net701
*866 net702
*867 net703
*868 net704
*869 net705
*870 net706
*871 net707
*872 net708
*873 net709
*874 net71
*875 net710
*876 net711
*877 net712
*878 net713
*879 net714
*880 net715
*881 net716
*882 net717
*883 net718
*884 net719
*885 net72
*886 net720
*887 net721
*888 net722
*889 net723
*890 net724
*891 net725
*892 net726
*893 net727
*894 net728
*895 net729
*896 net73
*897 net730
*898 net731
*899 net732
*900 net733
*901 net734
*902 net735
*903 net736
*904 net737
*905 net738
*906 net739
*907 net74
*908 net740
*909 net741
*910 net742
*911 net743
*912 net744
*913 net745
*914 net746
*915 net747
*916 net748
*917 net749
*918 net75
*919 net750
*920 net751
*921 net752
*922 net753
*923 net754
*924 net755
*925 net756
*926 net757
*927 net758
*928 net759
*929 net76
*930 net760
*931 net761
*932 net762
*933 net763
*934 net764
*935 net765
*936 net766
*937 net767
*938 net768
*939 net769
*940 net77
*941 net770
*942 net771
*943 net772
*944 net773
*945 net774
*946 net775
*947 net776
*948 net777
*949 net778
*950 net779
*951 net78
*952 net780
*953 net781
*954 net782
*955 net783
*956 net784
*957 net785
*958 net786
*959 net787
*960 net788
*961 net789
*962 net79
*963 net790
*964 net791
*965 net792
*966 net793
*967 net794
*968 net795
*969 net8
*970 net80
*971 net805
*972 net806
*973 net807
*974 net808
*975 net809
*976 net81
*977 net810
*978 net811
*979 net812
*980 net813
*981 net814
*982 net815
*983 net816
*984 net817
*985 net818
*986 net819
*987 net82
*988 net820
*989 net821
*990 net822
*991 net823
*992 net824
*993 net825
*994 net826
*995 net827
*996 net828
*997 net829
*998 net83
*999 net830
*1000 net831
*1001 net832
*1002 net833
*1003 net834
*1004 net84
*1005 net85
*1006 net86
*1007 net87
*1008 net88
*1009 net89
*1010 net9
*1011 net90
*1012 net91
*1013 net92
*1014 net93
*1015 net94
*1016 net95
*1017 net96
*1018 net97
*1019 net98
*1020 net99
*1021 ANTENNA_c100_B
*1022 ANTENNA_c100_Y
*1023 ANTENNA_c101_B
*1024 ANTENNA_c102_D1
*1025 ANTENNA_c102_X
*1026 ANTENNA_c104_C
*1027 ANTENNA_c104_X
*1028 ANTENNA_c107_B
*1029 ANTENNA_c107_Y
*1030 ANTENNA_c108_A
*1031 ANTENNA_c109_B
*1032 ANTENNA_c117_X
*1033 ANTENNA_c119_B
*1034 ANTENNA_c124_CLK
*1035 ANTENNA_c126_A
*1036 ANTENNA_c128_A
*1037 ANTENNA_c128_C_N
*1038 ANTENNA_c129_A
*1039 ANTENNA_c129_B_N
*1040 ANTENNA_c131_B
*1041 ANTENNA_c132_Y
*1042 ANTENNA_c133_A
*1043 ANTENNA_c133_B
*1044 ANTENNA_c133_Y
*1045 ANTENNA_c134_B_N
*1046 ANTENNA_c134_X
*1047 ANTENNA_c136_X
*1048 ANTENNA_c137_A_N
*1049 ANTENNA_c137_B
*1050 ANTENNA_c137_Y
*1051 ANTENNA_c138_D_N
*1052 ANTENNA_c139_B
*1053 ANTENNA_c142_A_N
*1054 ANTENNA_c146_C_N
*1055 ANTENNA_c147_B
*1056 ANTENNA_c148_A
*1057 ANTENNA_c148_B
*1058 ANTENNA_c149_B
*1059 ANTENNA_c149_X
*1060 ANTENNA_c150_A
*1061 ANTENNA_c150_B
*1062 ANTENNA_c151_B
*1063 ANTENNA_c151_Y
*1064 ANTENNA_c152_A_N
*1065 ANTENNA_c152_B
*1066 ANTENNA_c153_X
*1067 ANTENNA_c154_Y
*1068 ANTENNA_c155_A
*1069 ANTENNA_c156_A
*1070 ANTENNA_c157_Y
*1071 ANTENNA_c158_A
*1072 ANTENNA_c160_C
*1073 ANTENNA_c160_X
*1074 ANTENNA_c161_B
*1075 ANTENNA_c161_X
*1076 ANTENNA_c162_A
*1077 ANTENNA_c162_B
*1078 ANTENNA_c162_C
*1079 ANTENNA_c163_A2
*1080 ANTENNA_c163_D1
*1081 ANTENNA_c164_D_N
*1082 ANTENNA_c165_C_N
*1083 ANTENNA_c165_D_N
*1084 ANTENNA_c165_X
*1085 ANTENNA_c166_Y
*1086 ANTENNA_c167_A1
*1087 ANTENNA_c167_A3
*1088 ANTENNA_c167_S1
*1089 ANTENNA_c169_B
*1090 ANTENNA_c170_A
*1091 ANTENNA_c170_B_N
*1092 ANTENNA_c171_A
*1093 ANTENNA_c174_B
*1094 ANTENNA_c174_Y
*1095 ANTENNA_c175_A
*1096 ANTENNA_c178_C
*1097 ANTENNA_c178_X
*1098 ANTENNA_c179_B
*1099 ANTENNA_c180_B
*1100 ANTENNA_c181_A
*1101 ANTENNA_c181_C
*1102 ANTENNA_c182_CLK
*1103 ANTENNA_c182_D
*1104 ANTENNA_c182_RESET_B
*1105 ANTENNA_c183_CLK_N
*1106 ANTENNA_c183_Q
*1107 ANTENNA_c183_RESET_B
*1108 ANTENNA_c186_Q_N
*1109 ANTENNA_c186_RESET_B
*1110 ANTENNA_c187_A_N
*1111 ANTENNA_c187_X
*1112 ANTENNA_c189_A
*1113 ANTENNA_c190_A
*1114 ANTENNA_c190_Y
*1115 ANTENNA_c191_B_N
*1116 ANTENNA_c192_B
*1117 ANTENNA_c192_Y
*1118 ANTENNA_c193_B
*1119 ANTENNA_c194_B
*1120 ANTENNA_c195_B
*1121 ANTENNA_c196_B
*1122 ANTENNA_c197_B_N
*1123 ANTENNA_c197_Y
*1124 ANTENNA_c198_B
*1125 ANTENNA_c200_A
*1126 ANTENNA_c200_B
*1127 ANTENNA_c200_C_N
*1128 ANTENNA_c201_B
*1129 ANTENNA_c201_Y
*1130 ANTENNA_c202_B
*1131 ANTENNA_c203_CLK
*1132 ANTENNA_c203_Q
*1133 ANTENNA_c204_B
*1134 ANTENNA_c205_CLK
*1135 ANTENNA_c205_RESET_B
*1136 ANTENNA_c206_CLK
*1137 ANTENNA_c206_SET_B
*1138 ANTENNA_c207_B
*1139 ANTENNA_c208_Y
*1140 ANTENNA_c209_A1
*1141 ANTENNA_c209_S0
*1142 ANTENNA_c209_S1
*1143 ANTENNA_c210_A_N
*1144 ANTENNA_c211_D
*1145 ANTENNA_c211_SET_B
*1146 ANTENNA_c212_B
*1147 ANTENNA_c212_Y
*1148 ANTENNA_c213_B_N
*1149 ANTENNA_c214_A
*1150 ANTENNA_c214_B
*1151 ANTENNA_c214_X
*1152 ANTENNA_c215_A_N
*1153 ANTENNA_c215_B
*1154 ANTENNA_c216_C
*1155 ANTENNA_c217_B
*1156 ANTENNA_c220_B
*1157 ANTENNA_c221_B
*1158 ANTENNA_c222_B
*1159 ANTENNA_c222_D_N
*1160 ANTENNA_c223_Q
*1161 ANTENNA_c224_SET_B
*1162 ANTENNA_c225_SCE
*1163 ANTENNA_c226_B
*1164 ANTENNA_c228_CLK
*1165 ANTENNA_c228_SET_B
*1166 ANTENNA_c230_A1
*1167 ANTENNA_c231_B
*1168 ANTENNA_c231_C
*1169 ANTENNA_c232_C_N
*1170 ANTENNA_c233_A
*1171 ANTENNA_c233_B
*1172 ANTENNA_c234_B
*1173 ANTENNA_c234_C_N
*1174 ANTENNA_c235_SCD
*1175 ANTENNA_c235_SCE
*1176 ANTENNA_c237_A
*1177 ANTENNA_c238_B_N
*1178 ANTENNA_c241_A0
*1179 ANTENNA_c241_A2
*1180 ANTENNA_c246_B
*1181 ANTENNA_c246_C
*1182 ANTENNA_c248_B
*1183 ANTENNA_c252_A_N
*1184 ANTENNA_c252_B
*1185 ANTENNA_c252_X
*1186 ANTENNA_c255_Y
*1187 ANTENNA_c256_B_N
*1188 ANTENNA_c257_B
*1189 ANTENNA_c258_A
*1190 ANTENNA_c258_B
*1191 ANTENNA_c259_A
*1192 ANTENNA_c259_X
*1193 ANTENNA_c263_X
*1194 ANTENNA_c264_B
*1195 ANTENNA_c265_X
*1196 ANTENNA_c268_B
*1197 ANTENNA_c269_B
*1198 ANTENNA_c270_B
*1199 ANTENNA_c270_C_N
*1200 ANTENNA_c272_X
*1201 ANTENNA_c273_B_N
*1202 ANTENNA_c273_Y
*1203 ANTENNA_c274_X
*1204 ANTENNA_c275_B
*1205 ANTENNA_c277_B
*1206 ANTENNA_c279_B
*1207 ANTENNA_c279_Y
*1208 ANTENNA_c280_B
*1209 ANTENNA_c281_A2
*1210 ANTENNA_c282_CLK
*1211 ANTENNA_c282_Q
*1212 ANTENNA_c284_B_N
*1213 ANTENNA_c284_X
*1214 ANTENNA_c285_CLK
*1215 ANTENNA_c288_A
*1216 ANTENNA_c289_X
*1217 ANTENNA_c290_B
*1218 ANTENNA_c291_B
*1219 ANTENNA_c292_A
*1220 ANTENNA_c293_B
*1221 ANTENNA_c295_B
*1222 ANTENNA_c295_Y
*1223 ANTENNA_c296_B
*1224 ANTENNA_c297_A
*1225 ANTENNA_c299_B
*1226 ANTENNA_c299_C_N
*1227 ANTENNA_c300_B
*1228 ANTENNA_c301_GATE_N
*1229 ANTENNA_c302_B
*1230 ANTENNA_c302_X
*1231 ANTENNA_c303_B
*1232 ANTENNA_c304_B_N
*1233 ANTENNA_c306_GATE
*1234 ANTENNA_c306_RESET_B
*1235 ANTENNA_c307_A_N
*1236 ANTENNA_c307_C
*1237 ANTENNA_c308_A_N
*1238 ANTENNA_c308_B
*1239 ANTENNA_c309_Y
*1240 ANTENNA_c310_A2
*1241 ANTENNA_c310_S0
*1242 ANTENNA_c310_S1
*1243 ANTENNA_c313_A
*1244 ANTENNA_c315_X
*1245 ANTENNA_c316_Q
*1246 ANTENNA_c316_RESET_B
*1247 ANTENNA_c317_B1
*1248 ANTENNA_c317_C1
*1249 ANTENNA_c317_D1
*1250 ANTENNA_c320_GATE_N
*1251 ANTENNA_c320_RESET_B
*1252 ANTENNA_c321_SCE
*1253 ANTENNA_c321_SET_B
*1254 ANTENNA_c322_Q
*1255 ANTENNA_c322_SCE
*1256 ANTENNA_c324_B
*1257 ANTENNA_c326_SET_B
*1258 ANTENNA_c327_C_N
*1259 ANTENNA_c328_Y
*1260 ANTENNA_c329_B
*1261 ANTENNA_c329_X
*1262 ANTENNA_c330_A_N
*1263 ANTENNA_c332_A3
*1264 ANTENNA_c332_S0
*1265 ANTENNA_c332_S1
*1266 ANTENNA_c333_A2
*1267 ANTENNA_c333_B1
*1268 ANTENNA_c334_A2
*1269 ANTENNA_c334_B1
*1270 ANTENNA_c335_SCD
*1271 ANTENNA_c335_SCE
*1272 ANTENNA_c336_CLK_N
*1273 ANTENNA_c336_RESET_B
*1274 ANTENNA_c336_SET_B
*1275 ANTENNA_c337_B
*1276 ANTENNA_c338_B
*1277 ANTENNA_c339_A_N
*1278 ANTENNA_c339_B
*1279 ANTENNA_c340_C
*1280 ANTENNA_c341_D
*1281 ANTENNA_c341_RESET_B
*1282 ANTENNA_c341_SET_B
*1283 ANTENNA_c342_A
*1284 ANTENNA_c342_C_N
*1285 ANTENNA_c344_C1
*1286 ANTENNA_c344_X
*1287 ANTENNA_c345_B
*1288 ANTENNA_c346_SCD
*1289 ANTENNA_c349_C_N
*1290 ANTENNA_c349_D_N
*1291 ANTENNA_c350_Y
*1292 ANTENNA_c351_D1
*1293 ANTENNA_c351_X
*1294 ANTENNA_c352_X
*1295 ANTENNA_c353_B
*1296 ANTENNA_c353_C_N
*1297 ANTENNA_c354_CLK_N
*1298 ANTENNA_c354_Q
*1299 ANTENNA_c354_SCD
*1300 ANTENNA_c354_SET_B
*1301 ANTENNA_c355_D_N
*1302 ANTENNA_c355_X
*1303 ANTENNA_c356_B
*1304 ANTENNA_c356_X
*1305 ANTENNA_c357_A1
*1306 ANTENNA_c357_A2
*1307 ANTENNA_c357_S0
*1308 ANTENNA_c357_S1
*1309 ANTENNA_c359_A_N
*1310 ANTENNA_c359_B
*1311 ANTENNA_c361_B
*1312 ANTENNA_c363_B
*1313 ANTENNA_c366_B
*1314 ANTENNA_c367_A
*1315 ANTENNA_c367_B
*1316 ANTENNA_c368_B
*1317 ANTENNA_c369_RESET_B
*1318 ANTENNA_c370_SCD
*1319 ANTENNA_c375_A3
*1320 ANTENNA_c375_S0
*1321 ANTENNA_c378_B_N
*1322 ANTENNA_c379_X
*1323 ANTENNA_c381_A
*1324 ANTENNA_c381_B
*1325 ANTENNA_c383_B
*1326 ANTENNA_c384_A
*1327 ANTENNA_c384_X
*1328 ANTENNA_c386_B
*1329 ANTENNA_c387_B_N
*1330 ANTENNA_c388_A
*1331 ANTENNA_c393_B
*1332 ANTENNA_c393_Y
*1333 ANTENNA_c394_B
*1334 ANTENNA_c394_Y
*1335 ANTENNA_c395_B
*1336 ANTENNA_c395_X
*1337 ANTENNA_c396_B
*1338 ANTENNA_c397_Q
*1339 ANTENNA_c397_SCE
*1340 ANTENNA_c398_A2
*1341 ANTENNA_c398_A3
*1342 ANTENNA_c398_S0
*1343 ANTENNA_c398_S1
*1344 ANTENNA_c399_C
*1345 ANTENNA_c400_B_N
*1346 ANTENNA_c402_GATE
*1347 ANTENNA_c403_GATE
*1348 ANTENNA_c404_CLK
*1349 ANTENNA_c405_CLK
*1350 ANTENNA_c406_B
*1351 ANTENNA_c407_CLK_N
*1352 ANTENNA_c407_Q
*1353 ANTENNA_c408_A
*1354 ANTENNA_c408_B
*1355 ANTENNA_c409_Y
*1356 ANTENNA_c410_X
*1357 ANTENNA_c411_C
*1358 ANTENNA_c411_Y
*1359 ANTENNA_c412_CLK_N
*1360 ANTENNA_c412_Q
*1361 ANTENNA_c414_A
*1362 ANTENNA_c414_X
*1363 ANTENNA_c415_CLK
*1364 ANTENNA_c415_SCE
*1365 ANTENNA_c416_C_N
*1366 ANTENNA_c417_CLK
*1367 ANTENNA_c418_B
*1368 ANTENNA_c418_C
*1369 ANTENNA_c419_CLK
*1370 ANTENNA_c419_RESET_B
*1371 ANTENNA_c419_SCD
*1372 ANTENNA_c419_SCE
*1373 ANTENNA_c419_SET_B
*1374 ANTENNA_c420_CLK
*1375 ANTENNA_c420_RESET_B
*1376 ANTENNA_c420_SET_B
*1377 ANTENNA_c421_B
*1378 ANTENNA_c421_C
*1379 ANTENNA_c422_CLK
*1380 ANTENNA_c422_GATE
*1381 ANTENNA_c423_B_N
*1382 ANTENNA_c424_B
*1383 ANTENNA_c424_C_N
*1384 ANTENNA_c425_CLK
*1385 ANTENNA_c425_SCD
*1386 ANTENNA_c425_SCE
*1387 ANTENNA_c428_B
*1388 ANTENNA_c428_C
*1389 ANTENNA_c429_A
*1390 ANTENNA_c430_C_N
*1391 ANTENNA_c431_CLK
*1392 ANTENNA_c436_SET_B
*1393 ANTENNA_c438_A1
*1394 ANTENNA_c438_S1
*1395 ANTENNA_c440_CLK_N
*1396 ANTENNA_c440_SCE
*1397 ANTENNA_c440_SET_B
*1398 ANTENNA_c441_B_N
*1399 ANTENNA_c441_X
*1400 ANTENNA_c442_B
*1401 ANTENNA_c442_Y
*1402 ANTENNA_c444_B
*1403 ANTENNA_c445_B
*1404 ANTENNA_c448_B
*1405 ANTENNA_c448_C_N
*1406 ANTENNA_c449_A_N
*1407 ANTENNA_c449_B
*1408 ANTENNA_c449_C
*1409 ANTENNA_c450_A
*1410 ANTENNA_c451_A
*1411 ANTENNA_c451_B
*1412 ANTENNA_c452_B
*1413 ANTENNA_c453_A
*1414 ANTENNA_c455_B
*1415 ANTENNA_c455_C
*1416 ANTENNA_c456_Y
*1417 ANTENNA_c457_SCD
*1418 ANTENNA_c459_S1
*1419 ANTENNA_c460_B
*1420 ANTENNA_c462_B
*1421 ANTENNA_c463_A
*1422 ANTENNA_c463_B_N
*1423 ANTENNA_c465_A
*1424 ANTENNA_c465_C_N
*1425 ANTENNA_c467_A_N
*1426 ANTENNA_c468_B
*1427 ANTENNA_c469_B
*1428 ANTENNA_c471_A1
*1429 ANTENNA_c471_A3
*1430 ANTENNA_c471_S0
*1431 ANTENNA_c472_SET_B
*1432 ANTENNA_c473_CLK
*1433 ANTENNA_c473_D
*1434 ANTENNA_c474_A
*1435 ANTENNA_c474_C_N
*1436 ANTENNA_c475_B
*1437 ANTENNA_c476_Q
*1438 ANTENNA_c476_RESET_B
*1439 ANTENNA_c477_A1
*1440 ANTENNA_c477_A2
*1441 ANTENNA_c477_S1
*1442 ANTENNA_c478_C
*1443 ANTENNA_c479_D
*1444 ANTENNA_c479_Q
*1445 ANTENNA_c480_C
*1446 ANTENNA_c481_SCE
*1447 ANTENNA_c482_A3
*1448 ANTENNA_c482_S0
*1449 ANTENNA_c482_S1
*1450 ANTENNA_c494_D
*1451 ANTENNA_c494_SET_B
*1452 ANTENNA_c495_B1
*1453 ANTENNA_c496_A
*1454 ANTENNA_c496_B
*1455 ANTENNA_c497_A0
*1456 ANTENNA_c498_A_N
*1457 ANTENNA_c498_B
*1458 ANTENNA_c500_A
*1459 ANTENNA_c500_B
*1460 ANTENNA_c501_B
*1461 ANTENNA_c505_A
*1462 ANTENNA_c505_B
*1463 ANTENNA_c506_B
*1464 ANTENNA_c507_Y
*1465 ANTENNA_c509_SCE
*1466 ANTENNA_c510_A
*1467 ANTENNA_c510_B
*1468 ANTENNA_c510_X
*1469 ANTENNA_c514_A
*1470 ANTENNA_c515_D1
*1471 ANTENNA_c516_A
*1472 ANTENNA_c516_B
*1473 ANTENNA_c518_A_N
*1474 ANTENNA_c521_B_N
*1475 ANTENNA_c524_C
*1476 ANTENNA_c524_X
*1477 ANTENNA_c525_D
*1478 ANTENNA_c526_Q
*1479 ANTENNA_c526_Q_N
*1480 ANTENNA_c526_SET_B
*1481 ANTENNA_c527_Q
*1482 ANTENNA_c527_SET_B
*1483 ANTENNA_c528_A
*1484 ANTENNA_c528_B
*1485 ANTENNA_c529_B
*1486 ANTENNA_c532_A
*1487 ANTENNA_c532_B
*1488 ANTENNA_c533_B
*1489 ANTENNA_c534_B
*1490 ANTENNA_c535_B
*1491 ANTENNA_c536_A
*1492 ANTENNA_c538_B
*1493 ANTENNA_c539_B
*1494 ANTENNA_c539_Y
*1495 ANTENNA_c53_Y
*1496 ANTENNA_c540_A
*1497 ANTENNA_c540_B
*1498 ANTENNA_c541_C_N
*1499 ANTENNA_c542_C_N
*1500 ANTENNA_c544_C
*1501 ANTENNA_c545_X
*1502 ANTENNA_c546_B
*1503 ANTENNA_c548_CLK
*1504 ANTENNA_c548_SCE
*1505 ANTENNA_c54_B
*1506 ANTENNA_c550_B
*1507 ANTENNA_c551_B
*1508 ANTENNA_c552_A
*1509 ANTENNA_c553_C
*1510 ANTENNA_c556_C
*1511 ANTENNA_c558_C
*1512 ANTENNA_c55_B
*1513 ANTENNA_c55_X
*1514 ANTENNA_c561_A0
*1515 ANTENNA_c561_A2
*1516 ANTENNA_c561_A3
*1517 ANTENNA_c561_S0
*1518 ANTENNA_c566_C
*1519 ANTENNA_c567_A
*1520 ANTENNA_c567_B
*1521 ANTENNA_c567_C_N
*1522 ANTENNA_c568_B
*1523 ANTENNA_c568_C_N
*1524 ANTENNA_c569_SCE
*1525 ANTENNA_c56_B_N
*1526 ANTENNA_c570_B_N
*1527 ANTENNA_c571_B
*1528 ANTENNA_c571_C
*1529 ANTENNA_c572_B
*1530 ANTENNA_c574_D
*1531 ANTENNA_c576_B
*1532 ANTENNA_c576_X
*1533 ANTENNA_c577_RESET_B
*1534 ANTENNA_c578_C_N
*1535 ANTENNA_c578_X
*1536 ANTENNA_c579_S0
*1537 ANTENNA_c579_S1
*1538 ANTENNA_c57_C_N
*1539 ANTENNA_c580_B
*1540 ANTENNA_c581_A1
*1541 ANTENNA_c581_A2
*1542 ANTENNA_c582_D
*1543 ANTENNA_c582_RESET_B
*1544 ANTENNA_c582_SET_B
*1545 ANTENNA_c583_A0
*1546 ANTENNA_c583_A3
*1547 ANTENNA_c583_S0
*1548 ANTENNA_c584_A
*1549 ANTENNA_c585_A
*1550 ANTENNA_c586_A
*1551 ANTENNA_c587_C_N
*1552 ANTENNA_c588_SCD
*1553 ANTENNA_c588_SCE
*1554 ANTENNA_c588_SET_B
*1555 ANTENNA_c589_A_N
*1556 ANTENNA_c58_B
*1557 ANTENNA_c58_C
*1558 ANTENNA_c590_B
*1559 ANTENNA_c591_A
*1560 ANTENNA_c593_CLK
*1561 ANTENNA_c593_D
*1562 ANTENNA_c594_CLK
*1563 ANTENNA_c594_D
*1564 ANTENNA_c595_B
*1565 ANTENNA_c596_RESET_B
*1566 ANTENNA_c597_C
*1567 ANTENNA_c598_C_N
*1568 ANTENNA_c599_SCD
*1569 ANTENNA_c59_A
*1570 ANTENNA_c59_B
*1571 ANTENNA_c59_Y
*1572 ANTENNA_c600_Q_N
*1573 ANTENNA_c601_D
*1574 ANTENNA_c602_C
*1575 ANTENNA_c603_C_N
*1576 ANTENNA_c604_A0
*1577 ANTENNA_c604_A2
*1578 ANTENNA_c604_A3
*1579 ANTENNA_c605_SCE
*1580 ANTENNA_c606_B
*1581 ANTENNA_c606_D_N
*1582 ANTENNA_c607_B
*1583 ANTENNA_c60_C_N
*1584 ANTENNA_c60_Y
*1585 ANTENNA_c61_B_N
*1586 ANTENNA_c62_A1
*1587 ANTENNA_c62_S1
*1588 ANTENNA_c62_X
*1589 ANTENNA_c630_A_N
*1590 ANTENNA_c630_B
*1591 ANTENNA_c631_Y
*1592 ANTENNA_c633_B_N
*1593 ANTENNA_c634_A
*1594 ANTENNA_c635_A
*1595 ANTENNA_c635_Y
*1596 ANTENNA_c636_GATE_N
*1597 ANTENNA_c637_B
*1598 ANTENNA_c638_B_N
*1599 ANTENNA_c639_A_N
*1600 ANTENNA_c63_A
*1601 ANTENNA_c641_B
*1602 ANTENNA_c642_C_N
*1603 ANTENNA_c642_X
*1604 ANTENNA_c643_GATE_N
*1605 ANTENNA_c643_RESET_B
*1606 ANTENNA_c644_A
*1607 ANTENNA_c645_GATE
*1608 ANTENNA_c647_D_N
*1609 ANTENNA_c648_CLK
*1610 ANTENNA_c648_SCD
*1611 ANTENNA_c64_B
*1612 ANTENNA_c650_A2
*1613 ANTENNA_c651_A_N
*1614 ANTENNA_c654_A
*1615 ANTENNA_c654_B
*1616 ANTENNA_c655_C
*1617 ANTENNA_c656_A
*1618 ANTENNA_c657_B
*1619 ANTENNA_c657_Y
*1620 ANTENNA_c658_A0
*1621 ANTENNA_c658_A1
*1622 ANTENNA_c658_A3
*1623 ANTENNA_c658_S0
*1624 ANTENNA_c658_S1
*1625 ANTENNA_c659_A
*1626 ANTENNA_c65_B_N
*1627 ANTENNA_c660_B_N
*1628 ANTENNA_c661_A2
*1629 ANTENNA_c661_C1
*1630 ANTENNA_c663_A1
*1631 ANTENNA_c663_A2
*1632 ANTENNA_c663_B1
*1633 ANTENNA_c663_D1
*1634 ANTENNA_c664_SCD
*1635 ANTENNA_c664_SCE
*1636 ANTENNA_c665_B
*1637 ANTENNA_c666_CLK_N
*1638 ANTENNA_c669_A2
*1639 ANTENNA_c669_A3
*1640 ANTENNA_c66_B
*1641 ANTENNA_c670_C1
*1642 ANTENNA_c670_D1
*1643 ANTENNA_c671_CLK_N
*1644 ANTENNA_c672_B_N
*1645 ANTENNA_c673_SET_B
*1646 ANTENNA_c674_B
*1647 ANTENNA_c675_C
*1648 ANTENNA_c676_CLK
*1649 ANTENNA_c676_Q
*1650 ANTENNA_c676_SCE
*1651 ANTENNA_c677_B_N
*1652 ANTENNA_c677_X
*1653 ANTENNA_c678_B
*1654 ANTENNA_c678_C
*1655 ANTENNA_c679_A
*1656 ANTENNA_c67_Y
*1657 ANTENNA_c680_C
*1658 ANTENNA_c681_B
*1659 ANTENNA_c683_SCE
*1660 ANTENNA_c686_C
*1661 ANTENNA_c68_Y
*1662 ANTENNA_c690_A1
*1663 ANTENNA_c690_S1
*1664 ANTENNA_c691_CLK
*1665 ANTENNA_c693_A
*1666 ANTENNA_c693_B
*1667 ANTENNA_c693_C
*1668 ANTENNA_c694_B
*1669 ANTENNA_c694_C_N
*1670 ANTENNA_c696_A_N
*1671 ANTENNA_c697_B
*1672 ANTENNA_c698_B
*1673 ANTENNA_c698_C_N
*1674 ANTENNA_c698_D_N
*1675 ANTENNA_c700_CLK
*1676 ANTENNA_c701_B
*1677 ANTENNA_c701_C
*1678 ANTENNA_c702_A
*1679 ANTENNA_c703_CLK_N
*1680 ANTENNA_c703_RESET_B
*1681 ANTENNA_c703_SCD
*1682 ANTENNA_c704_A_N
*1683 ANTENNA_c705_B
*1684 ANTENNA_c706_CLK_N
*1685 ANTENNA_c706_SET_B
*1686 ANTENNA_c708_A1
*1687 ANTENNA_c708_A3
*1688 ANTENNA_c708_S0
*1689 ANTENNA_c709_A0
*1690 ANTENNA_c709_A3
*1691 ANTENNA_c70_B
*1692 ANTENNA_c711_CLK_N
*1693 ANTENNA_c713_D_N
*1694 ANTENNA_c714_A1
*1695 ANTENNA_c714_B1
*1696 ANTENNA_c714_D1
*1697 ANTENNA_c715_CLK
*1698 ANTENNA_c715_D
*1699 ANTENNA_c715_SET_B
*1700 ANTENNA_c716_A_N
*1701 ANTENNA_c716_Y
*1702 ANTENNA_c718_CLK_N
*1703 ANTENNA_c719_A
*1704 ANTENNA_c71_B
*1705 ANTENNA_c71_C
*1706 ANTENNA_c720_CLK_N
*1707 ANTENNA_c720_D
*1708 ANTENNA_c721_C
*1709 ANTENNA_c722_C
*1710 ANTENNA_c723_A
*1711 ANTENNA_c724_A
*1712 ANTENNA_c724_C_N
*1713 ANTENNA_c725_A3
*1714 ANTENNA_c727_CLK
*1715 ANTENNA_c727_D
*1716 ANTENNA_c728_A_N
*1717 ANTENNA_c729_A0
*1718 ANTENNA_c729_S0
*1719 ANTENNA_c730_A
*1720 ANTENNA_c731_B
*1721 ANTENNA_c733_A3
*1722 ANTENNA_c733_S1
*1723 ANTENNA_c734_CLK_N
*1724 ANTENNA_c74_B
*1725 ANTENNA_c75_B
*1726 ANTENNA_c76_B
*1727 ANTENNA_c77_D_N
*1728 ANTENNA_c79_A3
*1729 ANTENNA_c79_S0
*1730 ANTENNA_c82_B
*1731 ANTENNA_c83_B
*1732 ANTENNA_c83_D_N
*1733 ANTENNA_c85_Y
*1734 ANTENNA_c86_B_N
*1735 ANTENNA_c87_A_N
*1736 ANTENNA_c88_B_N
*1737 ANTENNA_c91_A_N
*1738 ANTENNA_c91_B
*1739 ANTENNA_c93_B
*1740 ANTENNA_c95_A
*1741 ANTENNA_c98_X
*1742 ANTENNA_c99_B
*1743 ANTENNA_clkbuf_0_clk_A
*1744 ANTENNA_clkbuf_0_clk_X
*1745 ANTENNA_clkbuf_1_1__f_net380_X
*1746 ANTENNA_clkbuf_1_1__f_net756_X
*1747 ANTENNA_clkbuf_4_0_0_clk_A
*1748 ANTENNA_clkbuf_4_0_0_clk_X
*1749 ANTENNA_clkbuf_4_10_0_clk_A
*1750 ANTENNA_clkbuf_4_10_0_clk_X
*1751 ANTENNA_clkbuf_4_11_0_clk_A
*1752 ANTENNA_clkbuf_4_12_0_clk_A
*1753 ANTENNA_clkbuf_4_13_0_clk_A
*1754 ANTENNA_clkbuf_4_13_0_clk_X
*1755 ANTENNA_clkbuf_4_14_0_clk_A
*1756 ANTENNA_clkbuf_4_15_0_clk_A
*1757 ANTENNA_clkbuf_4_15_0_clk_X
*1758 ANTENNA_clkbuf_4_1_0_clk_A
*1759 ANTENNA_clkbuf_4_2_0_clk_A
*1760 ANTENNA_clkbuf_4_3_0_clk_A
*1761 ANTENNA_clkbuf_4_4_0_clk_A
*1762 ANTENNA_clkbuf_4_5_0_clk_A
*1763 ANTENNA_clkbuf_4_6_0_clk_A
*1764 ANTENNA_clkbuf_4_7_0_clk_A
*1765 ANTENNA_clkbuf_4_7_0_clk_X
*1766 ANTENNA_clkbuf_4_8_0_clk_A