*SPEF "ieee 1481-1999"
*DESIGN "netlist_1"
*DATE "22:38:51 Saturday July 20, 2024"
*VENDOR "The OpenROAD Project"
*PROGRAM "OpenROAD"
*VERSION "d423155d69de7f683a23f6916ead418a615ad4ad"
*DESIGN_FLOW "NAME_SCOPE LOCAL" "PIN_CAP NONE"
*DIVIDER /
*DELIMITER :
*BUS_DELIMITER []
*T_UNIT 1 NS
*C_UNIT 1 PF
*R_UNIT 1 OHM
*L_UNIT 1 HENRY

*NAME_MAP
*3 clk
*4 in0
*5 in1
*6 in10
*7 in11
*8 in12
*9 in13
*10 in14
*11 in15
*12 in16
*13 in17
*14 in18
*15 in19
*16 in2
*17 in20
*18 in21
*19 in22
*20 in23
*21 in24
*22 in25
*23 in26
*24 in27
*25 in28
*26 in29
*27 in3
*28 in30
*29 in31
*30 in32
*31 in33
*32 in34
*33 in35
*34 in36
*35 in37
*36 in38
*37 in39
*38 in4
*39 in40
*40 in41
*41 in42
*42 in43
*43 in44
*44 in45
*45 in46
*46 in47
*47 in48
*48 in49
*49 in5
*50 in50
*51 in51
*52 in52
*53 in53
*54 in54
*55 in55
*56 in56
*57 in57
*58 in58
*59 in59
*60 in6
*61 in60
*62 in61
*63 in7
*64 in8
*65 in9
*66 out0
*67 out1
*68 out10
*69 out11
*70 out12
*71 out13
*72 out14
*73 out15
*74 out16
*75 out17
*76 out18
*77 out19
*78 out2
*79 out20
*80 out21
*81 out22
*82 out23
*83 out24
*84 out25
*85 out26
*86 out27
*87 out28
*88 out29
*89 out3
*90 out30
*91 out31
*92 out32
*93 out33
*94 out34
*95 out35
*96 out36
*97 out37
*98 out38
*99 out39
*100 out4
*101 out40
*102 out41
*103 out42
*104 out43
*105 out44
*106 out45
*107 out46
*108 out47
*109 out48
*110 out49
*111 out5
*112 out50
*113 out51
*114 out52
*115 out53
*116 out54
*117 out55
*118 out56
*119 out57
*120 out58
*121 out59
*122 out6
*123 out60
*124 out61
*125 out7
*126 out8
*127 out9
*128 rst
*129 clknet_0_clk
*130 clknet_0_net751
*131 clknet_0_net770
*132 clknet_1_0__leaf_net751
*133 clknet_1_0__leaf_net770
*134 clknet_1_1__leaf_net751
*135 clknet_1_1__leaf_net770
*136 clknet_4_0_0_clk
*137 clknet_4_10_0_clk
*138 clknet_4_11_0_clk
*139 clknet_4_12_0_clk
*140 clknet_4_13_0_clk
*141 clknet_4_14_0_clk
*142 clknet_4_15_0_clk
*143 clknet_4_1_0_clk
*144 clknet_4_2_0_clk
*145 clknet_4_3_0_clk
*146 clknet_4_4_0_clk
*147 clknet_4_5_0_clk
*148 clknet_4_6_0_clk
*149 clknet_4_7_0_clk
*150 clknet_4_8_0_clk
*151 clknet_4_9_0_clk
*152 net0
*153 net1
*154 net10
*155 net100
*156 net101
*157 net102
*158 net103
*159 net104
*160 net105
*161 net106
*162 net107
*163 net108
*164 net109
*165 net11
*166 net110
*167 net111
*168 net112
*169 net113
*170 net114
*171 net115
*172 net116
*173 net117
*174 net118
*175 net119
*176 net12
*177 net120
*178 net121
*179 net122
*180 net123
*181 net124
*182 net125
*183 net126
*184 net127
*185 net128
*186 net129
*187 net13
*188 net130
*189 net131
*190 net132
*191 net133
*192 net134
*193 net135
*194 net136
*195 net137
*196 net138
*197 net139
*198 net14
*199 net140
*200 net141
*201 net142
*202 net143
*203 net144
*204 net145
*205 net146
*206 net147
*207 net148
*208 net149
*209 net15
*210 net150
*211 net151
*212 net152
*213 net153
*214 net154
*215 net155
*216 net156
*217 net157
*218 net158
*219 net159
*220 net16
*221 net160
*222 net161
*223 net162
*224 net163
*225 net164
*226 net165
*227 net166
*228 net167
*229 net168
*230 net169
*231 net17
*232 net170
*233 net171
*234 net172
*235 net173
*236 net174
*237 net175
*238 net176
*239 net177
*240 net178
*241 net179
*242 net18
*243 net180
*244 net181
*245 net182
*246 net183
*247 net184
*248 net185
*249 net186
*250 net187
*251 net188
*252 net189
*253 net19
*254 net190
*255 net191
*256 net192
*257 net193
*258 net194
*259 net195
*260 net196
*261 net197
*262 net198
*263 net199
*264 net2
*265 net20
*266 net200
*267 net201
*268 net202
*269 net203
*270 net204
*271 net205
*272 net206
*273 net207
*274 net208
*275 net209
*276 net21
*277 net210
*278 net211
*279 net212
*280 net213
*281 net214
*282 net215
*283 net216
*284 net217
*285 net218
*286 net219
*287 net22
*288 net220
*289 net221
*290 net222
*291 net223
*292 net224
*293 net225
*294 net226
*295 net227
*296 net228
*297 net229
*298 net23
*299 net230
*300 net231
*301 net232
*302 net233
*303 net234
*304 net235
*305 net236
*306 net237
*307 net238
*308 net239
*309 net24
*310 net240
*311 net241
*312 net242
*313 net243
*314 net244
*315 net245
*316 net246
*317 net247
*318 net248
*319 net249
*320 net25
*321 net250
*322 net251
*323 net252
*324 net253
*325 net254
*326 net255
*327 net256
*328 net257
*329 net258
*330 net259
*331 net26
*332 net260
*333 net261
*334 net262
*335 net263
*336 net264
*337 net265
*338 net266
*339 net267
*340 net268
*341 net269
*342 net27
*343 net270
*344 net271
*345 net272
*346 net273
*347 net274
*348 net275
*349 net276
*350 net277
*351 net278
*352 net279
*353 net28
*354 net280
*355 net281
*356 net282
*357 net283
*358 net284
*359 net285
*360 net286
*361 net287
*362 net288
*363 net289
*364 net29
*365 net290
*366 net291
*367 net292
*368 net293
*369 net294
*370 net295
*371 net296
*372 net297
*373 net298
*374 net299
*375 net3
*376 net30
*377 net300
*378 net301
*379 net302
*380 net303
*381 net304
*382 net305
*383 net306
*384 net307
*385 net308
*386 net309
*387 net31
*388 net310
*389 net311
*390 net312
*391 net313
*392 net314
*393 net315
*394 net316
*395 net317
*396 net318
*397 net319
*398 net32
*399 net320
*400 net321
*401 net322
*402 net323
*403 net324
*404 net325
*405 net326
*406 net327
*407 net328
*408 net329
*409 net33
*410 net330
*411 net331
*412 net332
*413 net333
*414 net334
*415 net335
*416 net336
*417 net337
*418 net338
*419 net339
*420 net34
*421 net340
*422 net341
*423 net342
*424 net343
*425 net344
*426 net345
*427 net346
*428 net347
*429 net348
*430 net349
*431 net35
*432 net350
*433 net351
*434 net352
*435 net353
*436 net354
*437 net355
*438 net356
*439 net357
*440 net358
*441 net359
*442 net36
*443 net360
*444 net361
*445 net362
*446 net363
*447 net364
*448 net365
*449 net366
*450 net367
*451 net368
*452 net369
*453 net37
*454 net370
*455 net371
*456 net372
*457 net373
*458 net374
*459 net375
*460 net376
*461 net377
*462 net378
*463 net379
*464 net38
*465 net380
*466 net381
*467 net382
*468 net383
*469 net384
*470 net385
*471 net386
*472 net387
*473 net388
*474 net389
*475 net39
*476 net390
*477 net391
*478 net392
*479 net393
*480 net394
*481 net395
*482 net396
*483 net397
*484 net398
*485 net399
*486 net4
*487 net40
*488 net400
*489 net401
*490 net402
*491 net403
*492 net404
*493 net405
*494 net406
*495 net407
*496 net408
*497 net409
*498 net41
*499 net410
*500 net411
*501 net412
*502 net413
*503 net414
*504 net415
*505 net416
*506 net417
*507 net418
*508 net419
*509 net42
*510 net420
*511 net421
*512 net422
*513 net423
*514 net424
*515 net425
*516 net426
*517 net427
*518 net428
*519 net429
*520 net43
*521 net430
*522 net431
*523 net432
*524 net433
*525 net434
*526 net435
*527 net436
*528 net437
*529 net438
*530 net439
*531 net44
*532 net440
*533 net441
*534 net442
*535 net443
*536 net444
*537 net445
*538 net446
*539 net447
*540 net448
*541 net449
*542 net45
*543 net450
*544 net451
*545 net452
*546 net453
*547 net454
*548 net455
*549 net456
*550 net457
*551 net458
*552 net459
*553 net46
*554 net460
*555 net461
*556 net462
*557 net463
*558 net464
*559 net465
*560 net466
*561 net467
*562 net468
*563 net469
*564 net47
*565 net470
*566 net471
*567 net472
*568 net473
*569 net474
*570 net475
*571 net476
*572 net477
*573 net478
*574 net479
*575 net48
*576 net480
*577 net481
*578 net482
*579 net483
*580 net484
*581 net485
*582 net486
*583 net487
*584 net488
*585 net489
*586 net49
*587 net490
*588 net491
*589 net492
*590 net493
*591 net494
*592 net495
*593 net496
*594 net497
*595 net498
*596 net499
*597 net5
*598 net50
*599 net500
*600 net501
*601 net502
*602 net503
*603 net504
*604 net505
*605 net506
*606 net507
*607 net508
*608 net509
*609 net51
*610 net510
*611 net511
*612 net512
*613 net513
*614 net514
*615 net515
*616 net516
*617 net517
*618 net518
*619 net519
*620 net52
*621 net520
*622 net521
*623 net522
*624 net523
*625 net524
*626 net525
*627 net526
*628 net527
*629 net528
*630 net529
*631 net53
*632 net530
*633 net531
*634 net532
*635 net533
*636 net534
*637 net535
*638 net536
*639 net537
*640 net538
*641 net539
*642 net54
*643 net540
*644 net541
*645 net542
*646 net543
*647 net544
*648 net545
*649 net546
*650 net547
*651 net548
*652 net549
*653 net55
*654 net550
*655 net551
*656 net552
*657 net553
*658 net554
*659 net555
*660 net556
*661 net557
*662 net558
*663 net559
*664 net56
*665 net560
*666 net561
*667 net562
*668 net563
*669 net564
*670 net565
*671 net566
*672 net567
*673 net568
*674 net569
*675 net57
*676 net570
*677 net571
*678 net572
*679 net573
*680 net574
*681 net575
*682 net576
*683 net577
*684 net578
*685 net579
*686 net58
*687 net580
*688 net581
*689 net582
*690 net583
*691 net584
*692 net585
*693 net586
*694 net587
*695 net588
*696 net589
*697 net59
*698 net590
*699 net591
*700 net592
*701 net593
*702 net594
*703 net595
*704 net596
*705 net597
*706 net598
*707 net599
*708 net6
*709 net60
*710 net600
*711 net601
*712 net602
*713 net603
*714 net604
*715 net605
*716 net606
*717 net607
*718 net608
*719 net609
*720 net61
*721 net610
*722 net611
*723 net612
*724 net613
*725 net614
*726 net615
*727 net616
*728 net617
*729 net618
*730 net619
*731 net62
*732 net620
*733 net621
*734 net622
*735 net623
*736 net624
*737 net625
*738 net626
*739 net627
*740 net628
*741 net629
*742 net63
*743 net630
*744 net631
*745 net632
*746 net633
*747 net634
*748 net635
*749 net636
*750 net637
*751 net638
*752 net639
*753 net64
*754 net640
*755 net641
*756 net642
*757 net643
*758 net644
*759 net645
*760 net646
*761 net647
*762 net648
*763 net649
*764 net65
*765 net650
*766 net651
*767 net652
*768 net653
*769 net654
*770 net655
*771 net656
*772 net657
*773 net658
*774 net659
*775 net66
*776 net660
*777 net661
*778 net662
*779 net663
*780 net664
*781 net665
*782 net666
*783 net667
*784 net668
*785 net669
*786 net67
*787 net670
*788 net671
*789 net672
*790 net673
*791 net674
*792 net675
*793 net676
*794 net677
*795 net678
*796 net679
*797 net68
*798 net680
*799 net681
*800 net682
*801 net683
*802 net684
*803 net685
*804 net686
*805 net687
*806 net688
*807 net689
*808 net69
*809 net690
*810 net691
*811 net692
*812 net693
*813 net694
*814 net695
*815 net696
*816 net697
*817 net698
*818 net699
*819 net7
*820 net70
*821 net700
*822 net701
*823 net702
*824 net703
*825 net704
*826 net705
*827 net706
*828 net707
*829 net708
*830 net709
*831 net71
*832 net710
*833 net711
*834 net712
*835 net713
*836 net714
*837 net715
*838 net716
*839 net717
*840 net718
*841 net719
*842 net72
*843 net720
*844 net721
*845 net722
*846 net723
*847 net724
*848 net725
*849 net726
*850 net727
*851 net728
*852 net729
*853 net73
*854 net730
*855 net731
*856 net732
*857 net733
*858 net734
*859 net735
*860 net736
*861 net737
*862 net738
*863 net739
*864 net74
*865 net740
*866 net741
*867 net742
*868 net743
*869 net744
*870 net745
*871 net746
*872 net747
*873 net748
*874 net749
*875 net75
*876 net750
*877 net751
*878 net752
*879 net753
*880 net754
*881 net755
*882 net756
*883 net757
*884 net758
*885 net759
*886 net76
*887 net760
*888 net761
*889 net762
*890 net763
*891 net764
*892 net765
*893 net766
*894 net767
*895 net768
*896 net769
*897 net77
*898 net770
*899 net771
*900 net772
*901 net773
*902 net774
*903 net775
*904 net776
*905 net777
*906 net778
*907 net779
*908 net78
*909 net780
*910 net781
*911 net782
*912 net783
*913 net784
*914 net785
*915 net786
*916 net787
*917 net788
*918 net789
*919 net79
*920 net790
*921 net791
*922 net792
*923 net793
*924 net794
*925 net795
*926 net796
*927 net797
*928 net798
*929 net799
*930 net8
*931 net80
*932 net800
*933 net801
*934 net802
*935 net803
*936 net804
*937 net805
*938 net806
*939 net807
*940 net808
*941 net809
*942 net81
*943 net810
*944 net811
*945 net812
*946 net813
*947 net814
*948 net815
*949 net816
*950 net817
*951 net818
*952 net819
*953 net82
*954 net820
*955 net821
*956 net822
*957 net823
*958 net824
*959 net825
*960 net826
*961 net827
*962 net828
*963 net829
*964 net83
*965 net830
*966 net831
*967 net832
*968 net833
*969 net834
*970 net835
*971 net836
*972 net837
*973 net838
*974 net839
*975 net84
*976 net840
*977 net841
*978 net842
*979 net843
*980 net844
*981 net845
*982 net846
*983 net847
*984 net848
*985 net849
*986 net85
*987 net850
*988 net851
*989 net852
*990 net853
*991 net854
*992 net855
*993 net856
*994 net857
*995 net858
*996 net859
*997 net86
*998 net860
*999 net861
*1000 net862
*1001 net863
*1002 net864
*1003 net865
*1004 net866
*1005 net867
*1006 net868
*1007 net869
*1008 net87
*1009 net870
*1010 net871
*1011 net88
*1012 net89
*1013 net9
*1014 net90
*1015 net91
*1016 net92
*1017 net93
*1018 net94
*1019 net95
*1020 net96
*1021 net97
*1022 net98
*1023 net99
*1024 ANTENNA_1
*1025 ANTENNA_2
*1026 ANTENNA_c100_B
*1027 ANTENNA_c100_Y
*1028 ANTENNA_c101_A
*1029 ANTENNA_c101_B_N
*1030 ANTENNA_c102_A
*1031 ANTENNA_c104_X
*1032 ANTENNA_c107_B1
*1033 ANTENNA_c107_C1
*1034 ANTENNA_c109_S1
*1035 ANTENNA_c110_CLK_N
*1036 ANTENNA_c111_A
*1037 ANTENNA_c111_B
*1038 ANTENNA_c112_B
*1039 ANTENNA_c115_A_N
*1040 ANTENNA_c116_B
*1041 ANTENNA_c117_B
*1042 ANTENNA_c120_B
*1043 ANTENNA_c120_C_N
*1044 ANTENNA_c123_C1
*1045 ANTENNA_c124_CLK_N
*1046 ANTENNA_c125_CLK
*1047 ANTENNA_c126_S0
*1048 ANTENNA_c126_S1
*1049 ANTENNA_c127_CLK
*1050 ANTENNA_c129_CLK
*1051 ANTENNA_c129_RESET_B
*1052 ANTENNA_c132_B
*1053 ANTENNA_c135_Y
*1054 ANTENNA_c136_B
*1055 ANTENNA_c138_A
*1056 ANTENNA_c138_B_N
*1057 ANTENNA_c139_B_N
*1058 ANTENNA_c141_B_N
*1059 ANTENNA_c144_A1
*1060 ANTENNA_c144_A2
*1061 ANTENNA_c144_B1
*1062 ANTENNA_c144_C1
*1063 ANTENNA_c144_X
*1064 ANTENNA_c145_A_N
*1065 ANTENNA_c146_B
*1066 ANTENNA_c147_B
*1067 ANTENNA_c149_B
*1068 ANTENNA_c155_A_N
*1069 ANTENNA_c155_B
*1070 ANTENNA_c156_B
*1071 ANTENNA_c157_B
*1072 ANTENNA_c158_B
*1073 ANTENNA_c158_Y
*1074 ANTENNA_c159_A
*1075 ANTENNA_c159_B
*1076 ANTENNA_c161_Y
*1077 ANTENNA_c162_A_N
*1078 ANTENNA_c162_Y
*1079 ANTENNA_c164_B
*1080 ANTENNA_c164_C_N
*1081 ANTENNA_c165_B_N
*1082 ANTENNA_c165_Y
*1083 ANTENNA_c166_A
*1084 ANTENNA_c166_B
*1085 ANTENNA_c167_B
*1086 ANTENNA_c168_C1
*1087 ANTENNA_c171_S0
*1088 ANTENNA_c171_S1
*1089 ANTENNA_c171_X
*1090 ANTENNA_c172_C1
*1091 ANTENNA_c173_C
*1092 ANTENNA_c176_X
*1093 ANTENNA_c178_C
*1094 ANTENNA_c179_B_N
*1095 ANTENNA_c180_B
*1096 ANTENNA_c180_X
*1097 ANTENNA_c181_Y
*1098 ANTENNA_c183_B
*1099 ANTENNA_c185_A_N
*1100 ANTENNA_c185_X
*1101 ANTENNA_c189_B
*1102 ANTENNA_c190_B
*1103 ANTENNA_c190_X
*1104 ANTENNA_c191_A
*1105 ANTENNA_c191_C_N
*1106 ANTENNA_c192_B
*1107 ANTENNA_c193_B
*1108 ANTENNA_c193_C_N
*1109 ANTENNA_c194_A2
*1110 ANTENNA_c194_C1
*1111 ANTENNA_c194_X
*1112 ANTENNA_c195_B
*1113 ANTENNA_c196_C_N
*1114 ANTENNA_c199_SCD
*1115 ANTENNA_c200_B
*1116 ANTENNA_c200_X
*1117 ANTENNA_c201_B
*1118 ANTENNA_c203_B_N
*1119 ANTENNA_c203_X
*1120 ANTENNA_c204_X
*1121 ANTENNA_c206_A
*1122 ANTENNA_c206_B
*1123 ANTENNA_c208_B
*1124 ANTENNA_c210_B
*1125 ANTENNA_c212_D
*1126 ANTENNA_c212_RESET_B
*1127 ANTENNA_c213_Y
*1128 ANTENNA_c214_C
*1129 ANTENNA_c215_B
*1130 ANTENNA_c216_X
*1131 ANTENNA_c217_B
*1132 ANTENNA_c218_B
*1133 ANTENNA_c221_B
*1134 ANTENNA_c222_B
*1135 ANTENNA_c225_A
*1136 ANTENNA_c226_A
*1137 ANTENNA_c226_B
*1138 ANTENNA_c226_C_N
*1139 ANTENNA_c227_B
*1140 ANTENNA_c227_C
*1141 ANTENNA_c229_B_N
*1142 ANTENNA_c230_X
*1143 ANTENNA_c231_CLK
*1144 ANTENNA_c232_B
*1145 ANTENNA_c232_C_N
*1146 ANTENNA_c232_Y
*1147 ANTENNA_c233_C_N
*1148 ANTENNA_c234_B
*1149 ANTENNA_c235_S0
*1150 ANTENNA_c235_X
*1151 ANTENNA_c236_A
*1152 ANTENNA_c237_CLK_N
*1153 ANTENNA_c237_Q
*1154 ANTENNA_c238_CLK
*1155 ANTENNA_c238_SCE
*1156 ANTENNA_c239_C1
*1157 ANTENNA_c240_CLK
*1158 ANTENNA_c241_A1
*1159 ANTENNA_c241_A2
*1160 ANTENNA_c241_A3
*1161 ANTENNA_c241_S1
*1162 ANTENNA_c246_A
*1163 ANTENNA_c248_CLK_N
*1164 ANTENNA_c248_SCD
*1165 ANTENNA_c255_CLK
*1166 ANTENNA_c260_CLK_N
*1167 ANTENNA_c260_SCD
*1168 ANTENNA_c261_CLK_N
*1169 ANTENNA_c262_C
*1170 ANTENNA_c266_X
*1171 ANTENNA_c267_B_N
*1172 ANTENNA_c267_Y
*1173 ANTENNA_c268_B
*1174 ANTENNA_c268_C
*1175 ANTENNA_c269_X
*1176 ANTENNA_c270_A
*1177 ANTENNA_c271_A_N
*1178 ANTENNA_c272_Y
*1179 ANTENNA_c273_B
*1180 ANTENNA_c274_B
*1181 ANTENNA_c275_B1
*1182 ANTENNA_c275_C1
*1183 ANTENNA_c275_X
*1184 ANTENNA_c278_Y
*1185 ANTENNA_c279_A_N
*1186 ANTENNA_c279_B
*1187 ANTENNA_c279_X
*1188 ANTENNA_c280_B
*1189 ANTENNA_c281_B
*1190 ANTENNA_c281_C
*1191 ANTENNA_c282_B_N
*1192 ANTENNA_c282_Y
*1193 ANTENNA_c283_B
*1194 ANTENNA_c283_C_N
*1195 ANTENNA_c284_C1
*1196 ANTENNA_c285_X
*1197 ANTENNA_c286_B
*1198 ANTENNA_c286_X
*1199 ANTENNA_c287_A
*1200 ANTENNA_c288_A
*1201 ANTENNA_c288_B_N
*1202 ANTENNA_c288_X
*1203 ANTENNA_c289_A0
*1204 ANTENNA_c289_S0
*1205 ANTENNA_c289_S1
*1206 ANTENNA_c290_B
*1207 ANTENNA_c292_A1
*1208 ANTENNA_c292_A2
*1209 ANTENNA_c292_Y
*1210 ANTENNA_c293_B
*1211 ANTENNA_c295_B_N
*1212 ANTENNA_c296_A2
*1213 ANTENNA_c296_B1_N
*1214 ANTENNA_c298_A2
*1215 ANTENNA_c300_X
*1216 ANTENNA_c301_A1
*1217 ANTENNA_c302_A1
*1218 ANTENNA_c302_A2
*1219 ANTENNA_c303_A
*1220 ANTENNA_c304_A1
*1221 ANTENNA_c304_S1
*1222 ANTENNA_c306_A3
*1223 ANTENNA_c306_S1
*1224 ANTENNA_c307_B1_N
*1225 ANTENNA_c308_A1
*1226 ANTENNA_c308_B1
*1227 ANTENNA_c310_A2
*1228 ANTENNA_c310_B1_N
*1229 ANTENNA_c311_B_N
*1230 ANTENNA_c312_A_N
*1231 ANTENNA_c313_B
*1232 ANTENNA_c314_X
*1233 ANTENNA_c315_B1_N
*1234 ANTENNA_c315_Y
*1235 ANTENNA_c316_A3
*1236 ANTENNA_c316_B1
*1237 ANTENNA_c317_Y
*1238 ANTENNA_c318_A
*1239 ANTENNA_c318_Y
*1240 ANTENNA_c319_A2
*1241 ANTENNA_c319_B1
*1242 ANTENNA_c320_A1
*1243 ANTENNA_c320_A2
*1244 ANTENNA_c320_C1
*1245 ANTENNA_c322_SET_B
*1246 ANTENNA_c323_A1
*1247 ANTENNA_c324_B1_N
*1248 ANTENNA_c325_Q
*1249 ANTENNA_c325_RESET_B
*1250 ANTENNA_c327_A1
*1251 ANTENNA_c327_A2
*1252 ANTENNA_c327_A3
*1253 ANTENNA_c327_B1
*1254 ANTENNA_c327_C1
*1255 ANTENNA_c328_CLK
*1256 ANTENNA_c329_SCE
*1257 ANTENNA_c330_B
*1258 ANTENNA_c331_A_N
*1259 ANTENNA_c331_B
*1260 ANTENNA_c332_A
*1261 ANTENNA_c332_B_N
*1262 ANTENNA_c333_Y
*1263 ANTENNA_c336_B1
*1264 ANTENNA_c336_C1
*1265 ANTENNA_c339_B
*1266 ANTENNA_c340_B
*1267 ANTENNA_c341_A
*1268 ANTENNA_c341_B_N
*1269 ANTENNA_c341_X
*1270 ANTENNA_c343_Y
*1271 ANTENNA_c344_B
*1272 ANTENNA_c345_A2
*1273 ANTENNA_c345_B1_N
*1274 ANTENNA_c346_Y
*1275 ANTENNA_c347_B
*1276 ANTENNA_c348_Q
*1277 ANTENNA_c348_RESET_B
*1278 ANTENNA_c349_RESET_B
*1279 ANTENNA_c350_B
*1280 ANTENNA_c350_X
*1281 ANTENNA_c351_A1
*1282 ANTENNA_c351_A2
*1283 ANTENNA_c351_A3
*1284 ANTENNA_c351_S0
*1285 ANTENNA_c353_A
*1286 ANTENNA_c353_B_N
*1287 ANTENNA_c354_B_N
*1288 ANTENNA_c355_A0
*1289 ANTENNA_c355_A1
*1290 ANTENNA_c355_S
*1291 ANTENNA_c356_B
*1292 ANTENNA_c357_D
*1293 ANTENNA_c357_SCD
*1294 ANTENNA_c357_SCE
*1295 ANTENNA_c358_B
*1296 ANTENNA_c359_CLK
*1297 ANTENNA_c359_SCD
*1298 ANTENNA_c359_SCE
*1299 ANTENNA_c361_B
*1300 ANTENNA_c363_B
*1301 ANTENNA_c364_B_N
*1302 ANTENNA_c365_B
*1303 ANTENNA_c366_A2
*1304 ANTENNA_c369_A3
*1305 ANTENNA_c369_S1
*1306 ANTENNA_c370_CLK
*1307 ANTENNA_c370_SCE
*1308 ANTENNA_c371_B
*1309 ANTENNA_c372_CLK
*1310 ANTENNA_c392_A0
*1311 ANTENNA_c393_A0
*1312 ANTENNA_c393_A2
*1313 ANTENNA_c393_S1
*1314 ANTENNA_c395_A1
*1315 ANTENNA_c395_A3
*1316 ANTENNA_c398_X
*1317 ANTENNA_c399_B_N
*1318 ANTENNA_c401_A
*1319 ANTENNA_c401_X
*1320 ANTENNA_c402_A
*1321 ANTENNA_c402_B
*1322 ANTENNA_c405_A
*1323 ANTENNA_c407_D
*1324 ANTENNA_c409_A1
*1325 ANTENNA_c409_X
*1326 ANTENNA_c410_A1
*1327 ANTENNA_c413_CLK
*1328 ANTENNA_c414_X
*1329 ANTENNA_c416_SET_B
*1330 ANTENNA_c419_A
*1331 ANTENNA_c420_A
*1332 ANTENNA_c422_B
*1333 ANTENNA_c426_X
*1334 ANTENNA_c428_SET_B
*1335 ANTENNA_c430_B
*1336 ANTENNA_c432_Y
*1337 ANTENNA_c433_Y
*1338 ANTENNA_c439_SET_B
*1339 ANTENNA_c440_CLK
*1340 ANTENNA_c441_B1
*1341 ANTENNA_c441_C1
*1342 ANTENNA_c443_A1
*1343 ANTENNA_c444_B
*1344 ANTENNA_c447_B
*1345 ANTENNA_c447_X
*1346 ANTENNA_c451_A2
*1347 ANTENNA_c451_C1
*1348 ANTENNA_c452_B
*1349 ANTENNA_c452_X
*1350 ANTENNA_c455_Y
*1351 ANTENNA_c457_D
*1352 ANTENNA_c457_RESET_B
*1353 ANTENNA_c458_Q
*1354 ANTENNA_c458_SCD
*1355 ANTENNA_c458_SCE
*1356 ANTENNA_c460_S1
*1357 ANTENNA_c460_X
*1358 ANTENNA_c462_A
*1359 ANTENNA_c462_B
*1360 ANTENNA_c462_Y
*1361 ANTENNA_c463_RESET_B
*1362 ANTENNA_c463_SCD
*1363 ANTENNA_c463_SCE
*1364 ANTENNA_c463_SET_B
*1365 ANTENNA_c468_X
*1366 ANTENNA_c469_B
*1367 ANTENNA_c470_A1
*1368 ANTENNA_c470_A2
*1369 ANTENNA_c470_B1_N
*1370 ANTENNA_c470_Y
*1371 ANTENNA_c471_SCD
*1372 ANTENNA_c471_SCE
*1373 ANTENNA_c472_A1
*1374 ANTENNA_c472_A3
*1375 ANTENNA_c472_S1
*1376 ANTENNA_c473_A2
*1377 ANTENNA_c475_B_N
*1378 ANTENNA_c476_A_N
*1379 ANTENNA_c477_A2
*1380 ANTENNA_c477_B1
*1381 ANTENNA_c479_SCE
*1382 ANTENNA_c480_A1
*1383 ANTENNA_c480_X
*1384 ANTENNA_c481_B
*1385 ANTENNA_c482_S0
*1386 ANTENNA_c483_A0
*1387 ANTENNA_c483_A2
*1388 ANTENNA_c483_S0
*1389 ANTENNA_c483_X
*1390 ANTENNA_c484_B
*1391 ANTENNA_c485_B
*1392 ANTENNA_c486_A
*1393 ANTENNA_c486_B_N
*1394 ANTENNA_c487_A1
*1395 ANTENNA_c487_B1_N
*1396 ANTENNA_c488_D
*1397 ANTENNA_c488_RESET_B
*1398 ANTENNA_c488_SCD
*1399 ANTENNA_c488_SET_B
*1400 ANTENNA_c489_A1
*1401 ANTENNA_c489_A2
*1402 ANTENNA_c489_S1
*1403 ANTENNA_c490_B
*1404 ANTENNA_c491_A2
*1405 ANTENNA_c492_A2
*1406 ANTENNA_c492_B1
*1407 ANTENNA_c492_C1
*1408 ANTENNA_c495_D
*1409 ANTENNA_c496_A1
*1410 ANTENNA_c496_A2
*1411 ANTENNA_c496_S0
*1412 ANTENNA_c497_SCE
*1413 ANTENNA_c498_A1
*1414 ANTENNA_c498_A2
*1415 ANTENNA_c498_B1_N
*1416 ANTENNA_c499_A
*1417 ANTENNA_c500_CLK
*1418 ANTENNA_c501_A_N
*1419 ANTENNA_c503_A2
*1420 ANTENNA_c503_B1_N
*1421 ANTENNA_c504_CLK_N
*1422 ANTENNA_c532_A
*1423 ANTENNA_c538_A
*1424 ANTENNA_c539_B_N
*1425 ANTENNA_c539_Y
*1426 ANTENNA_c540_B
*1427 ANTENNA_c541_B
*1428 ANTENNA_c541_Y
*1429 ANTENNA_c542_B_N
*1430 ANTENNA_c544_A2
*1431 ANTENNA_c544_B1
*1432 ANTENNA_c546_A_N
*1433 ANTENNA_c547_Y
*1434 ANTENNA_c549_B1
*1435 ANTENNA_c549_X
*1436 ANTENNA_c550_A2
*1437 ANTENNA_c550_Y
*1438 ANTENNA_c553_B1
*1439 ANTENNA_c555_Y
*1440 ANTENNA_c556_A2
*1441 ANTENNA_c556_B1
*1442 ANTENNA_c557_Y
*1443 ANTENNA_c558_B1
*1444 ANTENNA_c560_A1
*1445 ANTENNA_c560_S
*1446 ANTENNA_c562_B1_N
*1447 ANTENNA_c562_X
*1448 ANTENNA_c564_A3
*1449 ANTENNA_c564_S0
*1450 ANTENNA_c567_SCD
*1451 ANTENNA_c569_CLK
*1452 ANTENNA_c569_Q
*1453 ANTENNA_c570_A3
*1454 ANTENNA_c571_C1
*1455 ANTENNA_c572_A
*1456 ANTENNA_c574_Y
*1457 ANTENNA_c575_A0
*1458 ANTENNA_c575_A1
*1459 ANTENNA_c575_A2
*1460 ANTENNA_c575_A3
*1461 ANTENNA_c575_S1
*1462 ANTENNA_c577_B
*1463 ANTENNA_c581_A1
*1464 ANTENNA_c581_A2
*1465 ANTENNA_c581_A3
*1466 ANTENNA_c581_S1
*1467 ANTENNA_c582_GATE_N
*1468 ANTENNA_c583_A_N
*1469 ANTENNA_c585_A2
*1470 ANTENNA_c585_B1_N
*1471 ANTENNA_c586_X
*1472 ANTENNA_c588_A2
*1473 ANTENNA_c588_A3
*1474 ANTENNA_c588_B1
*1475 ANTENNA_c588_C1
*1476 ANTENNA_c591_B1
*1477 ANTENNA_c594_B
*1478 ANTENNA_c596_A2
*1479 ANTENNA_c596_B1
*1480 ANTENNA_c597_A2
*1481 ANTENNA_c597_B1
*1482 ANTENNA_c599_A2
*1483 ANTENNA_c599_B1
*1484 ANTENNA_c600_B1
*1485 ANTENNA_c601_B1_N
*1486 ANTENNA_c602_RESET_B
*1487 ANTENNA_c603_D
*1488 ANTENNA_c603_RESET_B
*1489 ANTENNA_c603_SET_B
*1490 ANTENNA_c604_A2
*1491 ANTENNA_c604_A3
*1492 ANTENNA_c604_B1
*1493 ANTENNA_c605_A2
*1494 ANTENNA_c605_C1
*1495 ANTENNA_c608_SCD
*1496 ANTENNA_c609_SCE
*1497 ANTENNA_c609_SET_B
*1498 ANTENNA_c610_D
*1499 ANTENNA_c611_C1
*1500 ANTENNA_c612_A1
*1501 ANTENNA_c613_A2
*1502 ANTENNA_c613_A3
*1503 ANTENNA_c613_S0
*1504 ANTENNA_c615_B1
*1505 ANTENNA_c616_A0
*1506 ANTENNA_c616_A1
*1507 ANTENNA_c616_A2
*1508 ANTENNA_c616_A3
*1509 ANTENNA_c616_S0
*1510 ANTENNA_c617_A1
*1511 ANTENNA_c617_A2
*1512 ANTENNA_c617_B1
*1513 ANTENNA_c619_A2
*1514 ANTENNA_c619_B1
*1515 ANTENNA_c619_C1
*1516 ANTENNA_c620_B1
*1517 ANTENNA_c620_C1
*1518 ANTENNA_c621_A2
*1519 ANTENNA_c621_B1
*1520 ANTENNA_c622_A1
*1521 ANTENNA_c622_B1
*1522 ANTENNA_c624_A1
*1523 ANTENNA_c624_B1
*1524 ANTENNA_c625_SCD
*1525 ANTENNA_c625_SCE
*1526 ANTENNA_c626_A1
*1527 ANTENNA_c626_A2
*1528 ANTENNA_c626_A3
*1529 ANTENNA_c626_C1
*1530 ANTENNA_c627_B1
*1531 ANTENNA_c628_SET_B
*1532 ANTENNA_c629_A1
*1533 ANTENNA_c629_A3
*1534 ANTENNA_c629_B1
*1535 ANTENNA_c629_C1
*1536 ANTENNA_c62_A1
*1537 ANTENNA_c62_A3
*1538 ANTENNA_c62_S0
*1539 ANTENNA_c630_SCE
*1540 ANTENNA_c632_SCE
*1541 ANTENNA_c633_A1
*1542 ANTENNA_c634_B1_N
*1543 ANTENNA_c635_A1
*1544 ANTENNA_c636_A1
*1545 ANTENNA_c636_A2
*1546 ANTENNA_c636_C1
*1547 ANTENNA_c636_X
*1548 ANTENNA_c63_A1
*1549 ANTENNA_c63_A2
*1550 ANTENNA_c63_S0
*1551 ANTENNA_c63_S1
*1552 ANTENNA_c64_A1
*1553 ANTENNA_c64_S0
*1554 ANTENNA_c64_X
*1555 ANTENNA_c65_A1
*1556 ANTENNA_c65_A2
*1557 ANTENNA_c65_B1
*1558 ANTENNA_c65_C1
*1559 ANTENNA_c660_B
*1560 ANTENNA_c661_B
*1561 ANTENNA_c663_B_N
*1562 ANTENNA_c663_X
*1563 ANTENNA_c665_D
*1564 ANTENNA_c665_RESET_B
*1565 ANTENNA_c666_RESET_B
*1566 ANTENNA_c667_D
*1567 ANTENNA_c668_B
*1568 ANTENNA_c668_Y
*1569 ANTENNA_c669_B
*1570 ANTENNA_c66_A
*1571 ANTENNA_c672_A1
*1572 ANTENNA_c672_A2
*1573 ANTENNA_c673_X
*1574 ANTENNA_c674_D
*1575 ANTENNA_c676_S
*1576 ANTENNA_c677_A2
*1577 ANTENNA_c679_A_N
*1578 ANTENNA_c67_Y
*1579 ANTENNA_c680_Q
*1580 ANTENNA_c680_Q_N
*1581 ANTENNA_c680_RESET_B
*1582 ANTENNA_c681_Q
*1583 ANTENNA_c683_SCE
*1584 ANTENNA_c684_A2
*1585 ANTENNA_c686_A
*1586 ANTENNA_c688_A_N
*1587 ANTENNA_c688_B
*1588 ANTENNA_c689_GATE
*1589 ANTENNA_c68_A
*1590 ANTENNA_c690_GATE
*1591 ANTENNA_c691_B
*1592 ANTENNA_c692_CLK_N
*1593 ANTENNA_c692_SET_B
*1594 ANTENNA_c693_A2
*1595 ANTENNA_c694_CLK
*1596 ANTENNA_c695_CLK
*1597 ANTENNA_c697_CLK
*1598 ANTENNA_c698_A0
*1599 ANTENNA_c69_A
*1600 ANTENNA_c69_B_N
*1601 ANTENNA_c69_X
*1602 ANTENNA_c700_B1
*1603 ANTENNA_c701_CLK_N
*1604 ANTENNA_c702_CLK_N
*1605 ANTENNA_c704_A2
*1606 ANTENNA_c705_A_N
*1607 ANTENNA_c705_B
*1608 ANTENNA_c706_A2
*1609 ANTENNA_c706_A3
*1610 ANTENNA_c706_B1
*1611 ANTENNA_c707_CLK_N
*1612 ANTENNA_c709_A1
*1613 ANTENNA_c709_B1_N
*1614 ANTENNA_c70_A
*1615 ANTENNA_c70_B
*1616 ANTENNA_c711_B1_N
*1617 ANTENNA_c712_CLK
*1618 ANTENNA_c713_A
*1619 ANTENNA_c714_D
*1620 ANTENNA_c714_SCD
*1621 ANTENNA_c715_A1
*1622 ANTENNA_c716_CLK
*1623 ANTENNA_c716_SCD
*1624 ANTENNA_c718_A
*1625 ANTENNA_c720_A2
*1626 ANTENNA_c720_A3
*1627 ANTENNA_c723_CLK
*1628 ANTENNA_c725_CLK
*1629 ANTENNA_c725_SCE
*1630 ANTENNA_c728_B1
*1631 ANTENNA_c729_A2
*1632 ANTENNA_c72_B_N
*1633 ANTENNA_c730_B1
*1634 ANTENNA_c731_A2
*1635 ANTENNA_c731_A3
*1636 ANTENNA_c731_C1
*1637 ANTENNA_c732_A1
*1638 ANTENNA_c734_B_N
*1639 ANTENNA_c735_B1_N
*1640 ANTENNA_c737_SCE
*1641 ANTENNA_c738_A3
*1642 ANTENNA_c738_S1
*1643 ANTENNA_c741_A1
*1644 ANTENNA_c742_A0
*1645 ANTENNA_c742_A2
*1646 ANTENNA_c742_S1
*1647 ANTENNA_c743_A0
*1648 ANTENNA_c743_A3
*1649 ANTENNA_c747_B1_N
*1650 ANTENNA_c748_A1
*1651 ANTENNA_c748_A3
*1652 ANTENNA_c748_C1
*1653 ANTENNA_c749_A2
*1654 ANTENNA_c749_C1
*1655 ANTENNA_c74_B
*1656 ANTENNA_c750_SCE
*1657 ANTENNA_c750_SET_B
*1658 ANTENNA_c751_A1
*1659 ANTENNA_c751_B1
*1660 ANTENNA_c752_A1
*1661 ANTENNA_c752_A2
*1662 ANTENNA_c753_B1
*1663 ANTENNA_c754_SCD
*1664 ANTENNA_c755_D
*1665 ANTENNA_c756_B1
*1666 ANTENNA_c75_A
*1667 ANTENNA_c78_X
*1668 ANTENNA_c79_C
*1669 ANTENNA_c80_X
*1670 ANTENNA_c81_A_N
*1671 ANTENNA_c82_A1
*1672 ANTENNA_c84_C
*1673 ANTENNA_c85_A3
*1674 ANTENNA_c85_S1
*1675 ANTENNA_c85_X
*1676 ANTENNA_c89_B
*1677 ANTENNA_c92_B_N
*1678 ANTENNA_c92_X
*1679 ANTENNA_c93_A
*1680 ANTENNA_c93_X
*1681 ANTENNA_c94_B
*1682 ANTENNA_c95_C1
*1683 ANTENNA_c96_B
*1684 ANTENNA_c97_B
*1685 ANTENNA_c98_B
*1686 ANTENNA_clkbuf_0_clk_A
*1687 ANTENNA_clkbuf_0_clk_X
*1688 ANTENNA_clkbuf_4_0_0_clk_A
*1689 ANTENNA_clkbuf_4_10_0_clk_A
*1690 ANTENNA_clkbuf_4_11_0_clk_A
*1691 ANTENNA_clkbuf_4_11_0_clk_X
*1692 ANTENNA_clkbuf_4_12_0_clk_A
*1693 ANTENNA_clkbuf_4_13_0_clk_A
*1694 ANTENNA_clkbuf_4_14_0_clk_A
*1695 ANTENNA_clkbuf_4_15_0_clk_A
*1696 ANTENNA_clkbuf_4_1_0_clk_A
*1697 ANTENNA_clkbuf_4_2_0_clk_A
*1698 ANTENNA_clkbuf_4_2_0_clk_X
*1699 ANTENNA_clkbuf_4_3_0_clk_A
*1700 ANTENNA_clkbuf_4_4_0_clk_A
*1701 ANTENNA_clkbuf_4_4_0_clk_X
*1702 ANTENNA_clkbuf_4_5_0_clk_A
*1703 ANTENNA_clkbuf_4_5_0_clk_X
*1704 ANTENNA_clkbuf_4_6_0_clk_A
*1705 ANTENNA_clkbuf_4_7_0_clk_A
*1706 ANTENNA_clkbuf_4_7_0_clk_X
*1707 ANTENNA_clkbuf_4_8_0_clk_A
*1708 ANTENNA_clkbuf_4_9_0_clk_A
*1709 ANTENNA_fanout122_A
*1710 ANTENNA_fanout122_X
*1711 ANTENNA_fanout123_A
*1712 ANTENNA_fanout123_X
*1713 ANTENNA_fanout124_A
*1714 ANTENNA_fanout124_X
*1715 ANTENNA_fanout125_A
*1716 ANTENNA_fanout125_X
*1717 ANTENNA_hold36_A
*1718 ANTENNA_hold42_A
*1719 ANTENNA_hold43_A
*1720 ANTENNA_hold67_A
*1721 ANTENNA_hold77_A
*1722 ANTENNA_input10_A
*1723 ANTENNA_input10_X
*1724 ANTENNA_input11_A
*1725 ANTENNA_input12_A
*1726 ANTENNA_input12_X
*1727 ANTENNA_input13_A
*1728 ANTENNA_input14_A
*1729 ANTENNA_input14_X
*1730 ANTENNA_input15_A
*1731 ANTENNA_input15_X
*1732 ANTENNA_input16_A
*1733 ANTENNA_input16_X
*1734 ANTENNA_input17_A
*1735 ANTENNA_input17_X
*1736 ANTENNA_input18_A
*1737 ANTENNA_input18_X
*1738 ANTENNA_input19_A
*1739 ANTENNA_input19_X
*1740 ANTENNA_input1_A
*1741 ANTENNA_input1_X
*1742 ANTENNA_input20_A
*1743 ANTENNA_input20_X
*1744 ANTENNA_input21_A
*1745 ANTENNA_input21_X
*1746 ANTENNA_input22_A
*1747 ANTENNA_input22_X
*1748 ANTENNA_input23_A
*1749 ANTENNA_input24_A
*1750 ANTENNA_input24_X
*1751 ANTENNA_input25_A
*1752 ANTENNA_input26_A
*1753 ANTENNA_input27_A
*1754 ANTENNA_input28_A
*1755 ANTENNA_input29_A
*1756 ANTENNA_input2_A
*1757 ANTENNA_input2_X
*1758 ANTENNA_input30_A
*1759 ANTENNA_input31_A
*1760 ANTENNA_input32_A
*1761 ANTENNA_input32_X
*1762 ANTENNA_input33_A
*1763 ANTENNA_input34_A
*1764 ANTENNA_input34_X
*1765 ANTENNA_input35_A
*1766 ANTENNA_input35_X
*1767 ANTENNA_input36_A
*1768 ANTENNA_input37_A
*1769 ANTENNA_input38_A
*1770 ANTENNA_input39_A
*1771 ANTENNA_input3_A
*1772 ANTENNA_input3_X
*1773 ANTENNA_input40_A
*1774 ANTENNA_input40_X
*1775 ANTENNA_input41_A
*1776 ANTENNA_input41_X
*1777 ANTENNA_input42_A
*1778 ANTENNA_input43_A
*1779 ANTENNA_input44_A
*1780 ANTENNA_input44_X
*1781 ANTENNA_input45_A
*1782 ANTENNA_input46_A
*1783 ANTENNA_input46_X
*1784 ANTENNA_input47_A
*1785 ANTENNA_input48_A
*1786 ANTENNA_input49_A
*1787 ANTENNA_input4_A
*1788 ANTENNA_input4_X
*1789 ANTENNA_input50_A
*1790 ANTENNA_input51_A
*1791 ANTENNA_input52_A
*1792 ANTENNA_input52_X
*1793 ANTENNA_input53_A
*1794 ANTENNA_input54_A
*1795 ANTENNA_input54_X
*1796 ANTENNA_input55_A
*1797 ANTENNA_input56_A
*1798 ANTENNA_input57_A
*1799 ANTENNA_input57_X
*1800 ANTENNA_input58_A
*1801 ANTENNA_input59_A