*SPEF "ieee 1481-1999"
*DESIGN "netlist_0"
*DATE "01:02:22 Saturday July 20, 2024"
*VENDOR "The OpenROAD Project"
*PROGRAM "OpenROAD"
*VERSION "d423155d69de7f683a23f6916ead418a615ad4ad"
*DESIGN_FLOW "NAME_SCOPE LOCAL" "PIN_CAP NONE"
*DIVIDER /
*DELIMITER :
*BUS_DELIMITER []
*T_UNIT 1 NS
*C_UNIT 1 PF
*R_UNIT 1 OHM
*L_UNIT 1 HENRY

*NAME_MAP
*3 clk
*4 in0
*5 in1
*6 in10
*7 in11
*8 in12
*9 in13
*10 in14
*11 in15
*12 in16
*13 in17
*14 in18
*15 in19
*16 in2
*17 in20
*18 in21
*19 in22
*20 in23
*21 in24
*22 in25
*23 in26
*24 in27
*25 in28
*26 in29
*27 in3
*28 in30
*29 in31
*30 in32
*31 in33
*32 in34
*33 in35
*34 in36
*35 in37
*36 in38
*37 in39
*38 in4
*39 in40
*40 in41
*41 in42
*42 in43
*43 in44
*44 in45
*45 in46
*46 in47
*47 in48
*48 in49
*49 in5
*50 in50
*51 in51
*52 in52
*53 in53
*54 in54
*55 in55
*56 in56
*57 in57
*58 in58
*59 in59
*60 in6
*61 in60
*62 in61
*63 in7
*64 in8
*65 in9
*66 out0
*67 out1
*68 out10
*69 out11
*70 out12
*71 out13
*72 out14
*73 out15
*74 out16
*75 out17
*76 out18
*77 out19
*78 out2
*79 out20
*80 out21
*81 out22
*82 out23
*83 out24
*84 out25
*85 out26
*86 out27
*87 out28
*88 out29
*89 out3
*90 out30
*91 out31
*92 out32
*93 out33
*94 out34
*95 out35
*96 out36
*97 out37
*98 out38
*99 out39
*100 out4
*101 out40
*102 out41
*103 out42
*104 out43
*105 out44
*106 out45
*107 out46
*108 out47
*109 out48
*110 out49
*111 out5
*112 out50
*113 out51
*114 out52
*115 out53
*116 out54
*117 out55
*118 out56
*119 out57
*120 out58
*121 out59
*122 out6
*123 out60
*124 out61
*125 out7
*126 out8
*127 out9
*128 rst
*129 clknet_0_clk
*130 clknet_0_net170
*131 clknet_0_net228
*132 clknet_0_net230
*133 clknet_0_net232
*134 clknet_0_net233
*135 clknet_0_net318
*136 clknet_0_net336
*137 clknet_0_net339
*138 clknet_0_net341
*139 clknet_0_net345
*140 clknet_0_net368
*141 clknet_0_net427
*142 clknet_0_net429
*143 clknet_0_net431
*144 clknet_0_net434
*145 clknet_0_net438
*146 clknet_0_net440
*147 clknet_0_net445
*148 clknet_0_net451
*149 clknet_0_net453
*150 clknet_0_net454
*151 clknet_0_net457
*152 clknet_0_net461
*153 clknet_0_net465
*154 clknet_0_net470
*155 clknet_0_net471
*156 clknet_0_net472
*157 clknet_0_net487
*158 clknet_0_net492
*159 clknet_0_net545
*160 clknet_0_net547
*161 clknet_0_net562
*162 clknet_0_net574
*163 clknet_0_net577
*164 clknet_0_net582
*165 clknet_0_net586
*166 clknet_0_net596
*167 clknet_0_net611
*168 clknet_0_net673
*169 clknet_0_net674
*170 clknet_0_net687
*171 clknet_0_net688
*172 clknet_0_net689
*173 clknet_0_net702
*174 clknet_0_net703
*175 clknet_0_net720
*176 clknet_0_net721
*177 clknet_0_net739
*178 clknet_0_net740
*179 clknet_0_net741
*180 clknet_0_net757
*181 clknet_0_net758
*182 clknet_0_net824
*183 clknet_0_net827
*184 clknet_0_net832
*185 clknet_0_net843
*186 clknet_0_net849
*187 clknet_0_net859
*188 clknet_0_net868
*189 clknet_1_0__leaf_net170
*190 clknet_1_0__leaf_net228
*191 clknet_1_0__leaf_net230
*192 clknet_1_0__leaf_net232
*193 clknet_1_0__leaf_net233
*194 clknet_1_0__leaf_net318
*195 clknet_1_0__leaf_net336
*196 clknet_1_0__leaf_net339
*197 clknet_1_0__leaf_net341
*198 clknet_1_0__leaf_net345
*199 clknet_1_0__leaf_net368
*200 clknet_1_0__leaf_net427
*201 clknet_1_0__leaf_net429
*202 clknet_1_0__leaf_net431
*203 clknet_1_0__leaf_net434
*204 clknet_1_0__leaf_net438
*205 clknet_1_0__leaf_net440
*206 clknet_1_0__leaf_net445
*207 clknet_1_0__leaf_net451
*208 clknet_1_0__leaf_net453
*209 clknet_1_0__leaf_net454
*210 clknet_1_0__leaf_net457
*211 clknet_1_0__leaf_net461
*212 clknet_1_0__leaf_net465
*213 clknet_1_0__leaf_net470
*214 clknet_1_0__leaf_net471
*215 clknet_1_0__leaf_net472
*216 clknet_1_0__leaf_net487
*217 clknet_1_0__leaf_net492
*218 clknet_1_0__leaf_net545
*219 clknet_1_0__leaf_net547
*220 clknet_1_0__leaf_net562
*221 clknet_1_0__leaf_net574
*222 clknet_1_0__leaf_net577
*223 clknet_1_0__leaf_net582
*224 clknet_1_0__leaf_net586
*225 clknet_1_0__leaf_net596
*226 clknet_1_0__leaf_net611
*227 clknet_1_0__leaf_net673
*228 clknet_1_0__leaf_net674
*229 clknet_1_0__leaf_net687
*230 clknet_1_0__leaf_net688
*231 clknet_1_0__leaf_net689
*232 clknet_1_0__leaf_net702
*233 clknet_1_0__leaf_net703
*234 clknet_1_0__leaf_net720
*235 clknet_1_0__leaf_net721
*236 clknet_1_0__leaf_net739
*237 clknet_1_0__leaf_net740
*238 clknet_1_0__leaf_net741
*239 clknet_1_0__leaf_net757
*240 clknet_1_0__leaf_net758
*241 clknet_1_0__leaf_net824
*242 clknet_1_0__leaf_net827
*243 clknet_1_0__leaf_net832
*244 clknet_1_0__leaf_net843
*245 clknet_1_0__leaf_net849
*246 clknet_1_0__leaf_net859
*247 clknet_1_0__leaf_net868
*248 clknet_1_1__leaf_net170
*249 clknet_1_1__leaf_net228
*250 clknet_1_1__leaf_net230
*251 clknet_1_1__leaf_net232
*252 clknet_1_1__leaf_net233
*253 clknet_1_1__leaf_net318
*254 clknet_1_1__leaf_net336
*255 clknet_1_1__leaf_net339
*256 clknet_1_1__leaf_net341
*257 clknet_1_1__leaf_net345
*258 clknet_1_1__leaf_net368
*259 clknet_1_1__leaf_net427
*260 clknet_1_1__leaf_net429
*261 clknet_1_1__leaf_net431
*262 clknet_1_1__leaf_net434
*263 clknet_1_1__leaf_net438
*264 clknet_1_1__leaf_net440
*265 clknet_1_1__leaf_net445
*266 clknet_1_1__leaf_net451
*267 clknet_1_1__leaf_net453
*268 clknet_1_1__leaf_net454
*269 clknet_1_1__leaf_net457
*270 clknet_1_1__leaf_net461
*271 clknet_1_1__leaf_net465
*272 clknet_1_1__leaf_net470
*273 clknet_1_1__leaf_net471
*274 clknet_1_1__leaf_net472
*275 clknet_1_1__leaf_net487
*276 clknet_1_1__leaf_net492
*277 clknet_1_1__leaf_net545
*278 clknet_1_1__leaf_net547
*279 clknet_1_1__leaf_net562
*280 clknet_1_1__leaf_net574
*281 clknet_1_1__leaf_net577
*282 clknet_1_1__leaf_net582
*283 clknet_1_1__leaf_net586
*284 clknet_1_1__leaf_net596
*285 clknet_1_1__leaf_net611
*286 clknet_1_1__leaf_net673
*287 clknet_1_1__leaf_net674
*288 clknet_1_1__leaf_net687
*289 clknet_1_1__leaf_net688
*290 clknet_1_1__leaf_net689
*291 clknet_1_1__leaf_net702
*292 clknet_1_1__leaf_net703
*293 clknet_1_1__leaf_net720
*294 clknet_1_1__leaf_net721
*295 clknet_1_1__leaf_net739
*296 clknet_1_1__leaf_net740
*297 clknet_1_1__leaf_net741
*298 clknet_1_1__leaf_net757
*299 clknet_1_1__leaf_net758
*300 clknet_1_1__leaf_net824
*301 clknet_1_1__leaf_net827
*302 clknet_1_1__leaf_net832
*303 clknet_1_1__leaf_net843
*304 clknet_1_1__leaf_net849
*305 clknet_1_1__leaf_net859
*306 clknet_1_1__leaf_net868
*307 clknet_4_0_0_clk
*308 clknet_4_10_0_clk
*309 clknet_4_11_0_clk
*310 clknet_4_12_0_clk
*311 clknet_4_13_0_clk
*312 clknet_4_14_0_clk
*313 clknet_4_15_0_clk
*314 clknet_4_1_0_clk
*315 clknet_4_2_0_clk
*316 clknet_4_3_0_clk
*317 clknet_4_4_0_clk
*318 clknet_4_5_0_clk
*319 clknet_4_6_0_clk
*320 clknet_4_7_0_clk
*321 clknet_4_8_0_clk
*322 clknet_4_9_0_clk
*323 net0
*324 net1
*325 net10
*326 net100
*327 net1000
*328 net1001
*329 net1002
*330 net1003
*331 net1004
*332 net1005
*333 net1006
*334 net1007
*335 net1008
*336 net1009
*337 net101
*338 net1010
*339 net1011
*340 net1012
*341 net1013
*342 net1014
*343 net1015
*344 net1016
*345 net1017
*346 net1018
*347 net1019
*348 net102
*349 net1020
*350 net1021
*351 net1022
*352 net1023
*353 net1024
*354 net1025
*355 net1026
*356 net1027
*357 net1028
*358 net1029
*359 net103
*360 net1030
*361 net1031
*362 net1032
*363 net104
*364 net105
*365 net106
*366 net107
*367 net108
*368 net109
*369 net11
*370 net110
*371 net111
*372 net112
*373 net113
*374 net114
*375 net115
*376 net116
*377 net117
*378 net118
*379 net119
*380 net12
*381 net120
*382 net121
*383 net122
*384 net123
*385 net124
*386 net125
*387 net126
*388 net127
*389 net128
*390 net129
*391 net13
*392 net130
*393 net131
*394 net132
*395 net133
*396 net134
*397 net135
*398 net136
*399 net137
*400 net138
*401 net139
*402 net14
*403 net140
*404 net141
*405 net142
*406 net143
*407 net144
*408 net145
*409 net146
*410 net147
*411 net148
*412 net149
*413 net15
*414 net150
*415 net151
*416 net152
*417 net153
*418 net154
*419 net155
*420 net156
*421 net157
*422 net158
*423 net159
*424 net16
*425 net160
*426 net161
*427 net162
*428 net163
*429 net164
*430 net165
*431 net166
*432 net167
*433 net168
*434 net169
*435 net17
*436 net170
*437 net171
*438 net172
*439 net173
*440 net174
*441 net175
*442 net176
*443 net177
*444 net178
*445 net179
*446 net18
*447 net180
*448 net181
*449 net182
*450 net183
*451 net184
*452 net185
*453 net186
*454 net187
*455 net188
*456 net189
*457 net19
*458 net190
*459 net191
*460 net192
*461 net193
*462 net194
*463 net195
*464 net196
*465 net197
*466 net198
*467 net199
*468 net2
*469 net20
*470 net200
*471 net201
*472 net202
*473 net203
*474 net204
*475 net205
*476 net206
*477 net207
*478 net208
*479 net209
*480 net21
*481 net210
*482 net211
*483 net212
*484 net213
*485 net214
*486 net215
*487 net216
*488 net217
*489 net218
*490 net219
*491 net22
*492 net220
*493 net221
*494 net222
*495 net223
*496 net224
*497 net225
*498 net226
*499 net227
*500 net228
*501 net229
*502 net23
*503 net230
*504 net231
*505 net232
*506 net233
*507 net234
*508 net235
*509 net236
*510 net237
*511 net238
*512 net239
*513 net24
*514 net240
*515 net241
*516 net242
*517 net243
*518 net244
*519 net245
*520 net246
*521 net247
*522 net248
*523 net249
*524 net25
*525 net250
*526 net251
*527 net252
*528 net253
*529 net254
*530 net255
*531 net256
*532 net257
*533 net258
*534 net259
*535 net26
*536 net260
*537 net261
*538 net262
*539 net263
*540 net264
*541 net265
*542 net266
*543 net267
*544 net268
*545 net269
*546 net27
*547 net270
*548 net271
*549 net272
*550 net273
*551 net274
*552 net275
*553 net276
*554 net277
*555 net278
*556 net279
*557 net28
*558 net280
*559 net281
*560 net282
*561 net283
*562 net284
*563 net285
*564 net286
*565 net287
*566 net288
*567 net289
*568 net29
*569 net290
*570 net291
*571 net292
*572 net293
*573 net294
*574 net295
*575 net296
*576 net297
*577 net298
*578 net299
*579 net3
*580 net30
*581 net300
*582 net301
*583 net302
*584 net303
*585 net304
*586 net305
*587 net306
*588 net307
*589 net308
*590 net309
*591 net31
*592 net310
*593 net311
*594 net312
*595 net313
*596 net314
*597 net315
*598 net316
*599 net317
*600 net318
*601 net319
*602 net32
*603 net320
*604 net321
*605 net322
*606 net323
*607 net324
*608 net325
*609 net326
*610 net327
*611 net328
*612 net329
*613 net33
*614 net330
*615 net331
*616 net332
*617 net333
*618 net334
*619 net335
*620 net336
*621 net337
*622 net338
*623 net339
*624 net34
*625 net340
*626 net341
*627 net342
*628 net343
*629 net344
*630 net345
*631 net346
*632 net347
*633 net348
*634 net349
*635 net35
*636 net350
*637 net351
*638 net352
*639 net353
*640 net354
*641 net355
*642 net356
*643 net357
*644 net358
*645 net359
*646 net36
*647 net360
*648 net361
*649 net362
*650 net363
*651 net364
*652 net365
*653 net366
*654 net367
*655 net368
*656 net369
*657 net37
*658 net370
*659 net371
*660 net372
*661 net373
*662 net374
*663 net375
*664 net376
*665 net377
*666 net378
*667 net379
*668 net38
*669 net380
*670 net381
*671 net382
*672 net383
*673 net384
*674 net385
*675 net386
*676 net387
*677 net388
*678 net389
*679 net39
*680 net390
*681 net391
*682 net392
*683 net393
*684 net394
*685 net395
*686 net396
*687 net397
*688 net398
*689 net399
*690 net4
*691 net40
*692 net400
*693 net401
*694 net402
*695 net403
*696 net404
*697 net405
*698 net406
*699 net407
*700 net408
*701 net409
*702 net41
*703 net410
*704 net411
*705 net412
*706 net413
*707 net414
*708 net415
*709 net416
*710 net417
*711 net418
*712 net419
*713 net42
*714 net420
*715 net421
*716 net422
*717 net423
*718 net424
*719 net425
*720 net426
*721 net427
*722 net428
*723 net429
*724 net43
*725 net430
*726 net431
*727 net432
*728 net433
*729 net434
*730 net435
*731 net436
*732 net437
*733 net438
*734 net439
*735 net44
*736 net440
*737 net441
*738 net442
*739 net443
*740 net444
*741 net445
*742 net446
*743 net447
*744 net448
*745 net449
*746 net45
*747 net450
*748 net451
*749 net452
*750 net453
*751 net454
*752 net455
*753 net456
*754 net457
*755 net458
*756 net459
*757 net46
*758 net460
*759 net461
*760 net462
*761 net463
*762 net464
*763 net465
*764 net466
*765 net467
*766 net468
*767 net469
*768 net47
*769 net470
*770 net471
*771 net472
*772 net473
*773 net474
*774 net475
*775 net476
*776 net477
*777 net478
*778 net479
*779 net48
*780 net480
*781 net481
*782 net482
*783 net483
*784 net484
*785 net485
*786 net486
*787 net487
*788 net488
*789 net489
*790 net49
*791 net490
*792 net491
*793 net492
*794 net493
*795 net494
*796 net495
*797 net496
*798 net497
*799 net498
*800 net499
*801 net5
*802 net50
*803 net500
*804 net501
*805 net502
*806 net503
*807 net504
*808 net505
*809 net506
*810 net507
*811 net508
*812 net509
*813 net51
*814 net510
*815 net511
*816 net512
*817 net513
*818 net514
*819 net515
*820 net516
*821 net517
*822 net518
*823 net519
*824 net52
*825 net520
*826 net521
*827 net522
*828 net523
*829 net524
*830 net525
*831 net526
*832 net527
*833 net528
*834 net529
*835 net53
*836 net530
*837 net531
*838 net532
*839 net533
*840 net534
*841 net535
*842 net536
*843 net537
*844 net538
*845 net539
*846 net54
*847 net540
*848 net541
*849 net542
*850 net543
*851 net544
*852 net545
*853 net546
*854 net547
*855 net548
*856 net549
*857 net55
*858 net550
*859 net551
*860 net552
*861 net553
*862 net554
*863 net555
*864 net556
*865 net557
*866 net558
*867 net559
*868 net56
*869 net560
*870 net561
*871 net562
*872 net563
*873 net564
*874 net565
*875 net566
*876 net567
*877 net568
*878 net569
*879 net57
*880 net570
*881 net571
*882 net572
*883 net573
*884 net574
*885 net575
*886 net576
*887 net577
*888 net578
*889 net579
*890 net58
*891 net580
*892 net581
*893 net582
*894 net583
*895 net584
*896 net585
*897 net586
*898 net587
*899 net588
*900 net589
*901 net59
*902 net590
*903 net591
*904 net592
*905 net593
*906 net594
*907 net595
*908 net596
*909 net597
*910 net598
*911 net599
*912 net6
*913 net60
*914 net600
*915 net601
*916 net602
*917 net603
*918 net604
*919 net605
*920 net606
*921 net607
*922 net608
*923 net609
*924 net61
*925 net610
*926 net611
*927 net612
*928 net613
*929 net614
*930 net615
*931 net616
*932 net617
*933 net618
*934 net619
*935 net62
*936 net620
*937 net621
*938 net622
*939 net623
*940 net624
*941 net625
*942 net626
*943 net627
*944 net628
*945 net629
*946 net63
*947 net630
*948 net631
*949 net632
*950 net633
*951 net634
*952 net635
*953 net636
*954 net637
*955 net638
*956 net639
*957 net64
*958 net640
*959 net641
*960 net642
*961 net643
*962 net644
*963 net645
*964 net646
*965 net647
*966 net648
*967 net649
*968 net65
*969 net650
*970 net651
*971 net652
*972 net653
*973 net654
*974 net655
*975 net656
*976 net657
*977 net658
*978 net659
*979 net66
*980 net660
*981 net661
*982 net662
*983 net663
*984 net664
*985 net665
*986 net666
*987 net667
*988 net668
*989 net669
*990 net67
*991 net670
*992 net671
*993 net672
*994 net673
*995 net674
*996 net675
*997 net676
*998 net677
*999 net678
*1000 net679
*1001 net68
*1002 net680
*1003 net681
*1004 net682
*1005 net683
*1006 net684
*1007 net685
*1008 net686
*1009 net687
*1010 net688
*1011 net689
*1012 net69
*1013 net690
*1014 net691
*1015 net692
*1016 net693
*1017 net694
*1018 net695
*1019 net696
*1020 net697
*1021 net698
*1022 net699
*1023 net7
*1024 net70
*1025 net700
*1026 net701
*1027 net702
*1028 net703
*1029 net704
*1030 net705
*1031 net706
*1032 net707
*1033 net708
*1034 net709
*1035 net71
*1036 net710
*1037 net711
*1038 net712
*1039 net713
*1040 net714
*1041 net715
*1042 net716
*1043 net717
*1044 net718
*1045 net719
*1046 net72
*1047 net720
*1048 net721
*1049 net722
*1050 net723
*1051 net724
*1052 net725
*1053 net726
*1054 net727
*1055 net728
*1056 net729
*1057 net73
*1058 net730
*1059 net731
*1060 net732
*1061 net733
*1062 net734
*1063 net735
*1064 net736
*1065 net737
*1066 net738
*1067 net739
*1068 net74
*1069 net740
*1070 net741
*1071 net742
*1072 net743
*1073 net744
*1074 net745
*1075 net746
*1076 net747
*1077 net748
*1078 net749
*1079 net75
*1080 net750
*1081 net751
*1082 net752
*1083 net753
*1084 net754
*1085 net755
*1086 net756
*1087 net757
*1088 net758
*1089 net759
*1090 net76
*1091 net760
*1092 net761
*1093 net762
*1094 net763
*1095 net764
*1096 net765
*1097 net766
*1098 net767
*1099 net768
*1100 net769
*1101 net77
*1102 net770
*1103 net771
*1104 net772
*1105 net773
*1106 net774
*1107 net775
*1108 net776
*1109 net777
*1110 net778
*1111 net779
*1112 net78
*1113 net780
*1114 net781
*1115 net782
*1116 net783
*1117 net784
*1118 net785
*1119 net786
*1120 net787
*1121 net788
*1122 net789
*1123 net79
*1124 net790
*1125 net791
*1126 net792
*1127 net793
*1128 net794
*1129 net795
*1130 net796
*1131 net797
*1132 net798
*1133 net799
*1134 net8
*1135 net80
*1136 net800
*1137 net801
*1138 net802
*1139 net803
*1140 net804
*1141 net805
*1142 net806
*1143 net807
*1144 net808
*1145 net809
*1146 net81
*1147 net810
*1148 net811
*1149 net812
*1150 net813
*1151 net814
*1152 net815
*1153 net816
*1154 net817
*1155 net818
*1156 net819
*1157 net82
*1158 net820
*1159 net821
*1160 net822
*1161 net823
*1162 net824
*1163 net825
*1164 net826
*1165 net827
*1166 net828
*1167 net829
*1168 net83
*1169 net830
*1170 net831
*1171 net832
*1172 net833
*1173 net834
*1174 net835
*1175 net836
*1176 net837
*1177 net838
*1178 net839
*1179 net84
*1180 net840
*1181 net841
*1182 net842
*1183 net843
*1184 net844
*1185 net845
*1186 net846
*1187 net847
*1188 net848
*1189 net849
*1190 net85
*1191 net850
*1192 net851
*1193 net852
*1194 net853
*1195 net854
*1196 net855
*1197 net856
*1198 net857
*1199 net858
*1200 net859
*1201 net86
*1202 net860
*1203 net861
*1204 net862
*1205 net863
*1206 net864
*1207 net865
*1208 net866
*1209 net867
*1210 net868
*1211 net869
*1212 net87
*1213 net870
*1214 net871
*1215 net872
*1216 net873
*1217 net874
*1218 net875
*1219 net876
*1220 net877
*1221 net878
*1222 net879
*1223 net88
*1224 net880
*1225 net881
*1226 net882
*1227 net883
*1228 net884
*1229 net885
*1230 net886
*1231 net887
*1232 net888
*1233 net889
*1234 net89
*1235 net890
*1236 net891
*1237 net892
*1238 net893
*1239 net894
*1240 net895
*1241 net896
*1242 net897
*1243 net898
*1244 net899
*1245 net9
*1246 net90
*1247 net900
*1248 net901
*1249 net902
*1250 net903
*1251 net904
*1252 net905
*1253 net906
*1254 net907
*1255 net908
*1256 net909
*1257 net91
*1258 net910
*1259 net911
*1260 net912
*1261 net913
*1262 net914
*1263 net915
*1264 net916
*1265 net917
*1266 net918
*1267 net919
*1268 net92
*1269 net920
*1270 net921
*1271 net922
*1272 net923
*1273 net924
*1274 net925
*1275 net926
*1276 net927
*1277 net928
*1278 net929
*1279 net93
*1280 net930
*1281 net931
*1282 net932
*1283 net933
*1284 net934
*1285 net935
*1286 net936
*1287 net937
*1288 net938
*1289 net939
*1290 net94
*1291 net940
*1292 net941
*1293 net942
*1294 net943
*1295 net944
*1296 net945
*1297 net946
*1298 net947
*1299 net948
*1300 net949
*1301 net95
*1302 net950
*1303 net951
*1304 net952
*1305 net953
*1306 net954
*1307 net955
*1308 net956
*1309 net957
*1310 net958
*1311 net959
*1312 net96
*1313 net960
*1314 net961
*1315 net962
*1316 net963
*1317 net964
*1318 net965
*1319 net966
*1320 net967
*1321 net968
*1322 net969
*1323 net97
*1324 net970
*1325 net971
*1326 net972
*1327 net973
*1328 net974
*1329 net975
*1330 net976
*1331 net977
*1332 net978
*1333 net979
*1334 net98
*1335 net980
*1336 net981
*1337 net982
*1338 net983
*1339 net984
*1340 net985
*1341 net986
*1342 net987
*1343 net988
*1344 net989
*1345 net99
*1346 net990
*1347 net991
*1348 net992
*1349 net993
*1350 net994
*1351 net995
*1352 net996
*1353 net997
*1354 net998
*1355 net999
*1356 ANTENNA_c101_C_N
*1357 ANTENNA_c102_A1
*1358 ANTENNA_c102_D1
*1359 ANTENNA_c103_X
*1360 ANTENNA_c104_B
*1361 ANTENNA_c105_B
*1362 ANTENNA_c105_X
*1363 ANTENNA_c106_A1
*1364 ANTENNA_c106_A3
*1365 ANTENNA_c108_A2
*1366 ANTENNA_c108_S0
*1367 ANTENNA_c110_B
*1368 ANTENNA_c110_C
*1369 ANTENNA_c111_A1
*1370 ANTENNA_c111_A2
*1371 ANTENNA_c111_B1
*1372 ANTENNA_c111_C1
*1373 ANTENNA_c115_B
*1374 ANTENNA_c116_A
*1375 ANTENNA_c117_A_N
*1376 ANTENNA_c117_B
*1377 ANTENNA_c117_C
*1378 ANTENNA_c119_B
*1379 ANTENNA_c125_A0
*1380 ANTENNA_c126_A2
*1381 ANTENNA_c129_A3
*1382 ANTENNA_c130_B1
*1383 ANTENNA_c131_A3
*1384 ANTENNA_c133_B_N
*1385 ANTENNA_c133_Y
*1386 ANTENNA_c134_D
*1387 ANTENNA_c134_X
*1388 ANTENNA_c135_B
*1389 ANTENNA_c135_Y
*1390 ANTENNA_c136_A
*1391 ANTENNA_c136_B
*1392 ANTENNA_c137_B
*1393 ANTENNA_c137_Y
*1394 ANTENNA_c138_A
*1395 ANTENNA_c139_A
*1396 ANTENNA_c140_X
*1397 ANTENNA_c141_B_N
*1398 ANTENNA_c143_B_N
*1399 ANTENNA_c145_B
*1400 ANTENNA_c145_C
*1401 ANTENNA_c145_D
*1402 ANTENNA_c146_A
*1403 ANTENNA_c146_X
*1404 ANTENNA_c148_X
*1405 ANTENNA_c149_D
*1406 ANTENNA_c150_X
*1407 ANTENNA_c151_A
*1408 ANTENNA_c152_X
*1409 ANTENNA_c153_B
*1410 ANTENNA_c153_X
*1411 ANTENNA_c154_B
*1412 ANTENNA_c155_X
*1413 ANTENNA_c156_B
*1414 ANTENNA_c157_A1
*1415 ANTENNA_c157_A2
*1416 ANTENNA_c157_A3
*1417 ANTENNA_c157_S1
*1418 ANTENNA_c157_X
*1419 ANTENNA_c159_A
*1420 ANTENNA_c160_A
*1421 ANTENNA_c160_B
*1422 ANTENNA_c161_C
*1423 ANTENNA_c163_A
*1424 ANTENNA_c163_B
*1425 ANTENNA_c163_C
*1426 ANTENNA_c163_X
*1427 ANTENNA_c165_A2
*1428 ANTENNA_c165_A3
*1429 ANTENNA_c165_S0
*1430 ANTENNA_c167_A1
*1431 ANTENNA_c167_A2
*1432 ANTENNA_c167_A3
*1433 ANTENNA_c167_S0
*1434 ANTENNA_c167_S1
*1435 ANTENNA_c168_A1
*1436 ANTENNA_c168_B1
*1437 ANTENNA_c171_A3
*1438 ANTENNA_c171_S1
*1439 ANTENNA_c172_D1
*1440 ANTENNA_c172_X
*1441 ANTENNA_c173_A0
*1442 ANTENNA_c173_A3
*1443 ANTENNA_c173_S0
*1444 ANTENNA_c174_A3
*1445 ANTENNA_c174_S1
*1446 ANTENNA_c174_X
*1447 ANTENNA_c175_A0
*1448 ANTENNA_c175_A1
*1449 ANTENNA_c176_B
*1450 ANTENNA_c176_X
*1451 ANTENNA_c177_C
*1452 ANTENNA_c181_A1
*1453 ANTENNA_c181_B1
*1454 ANTENNA_c181_C1
*1455 ANTENNA_c181_D1
*1456 ANTENNA_c182_B_N
*1457 ANTENNA_c183_B_N
*1458 ANTENNA_c183_X
*1459 ANTENNA_c184_B
*1460 ANTENNA_c184_C_N
*1461 ANTENNA_c184_X
*1462 ANTENNA_c185_A2
*1463 ANTENNA_c185_B1
*1464 ANTENNA_c185_C1
*1465 ANTENNA_c185_D1
*1466 ANTENNA_c186_B1
*1467 ANTENNA_c186_C1
*1468 ANTENNA_c188_B1
*1469 ANTENNA_c189_A1
*1470 ANTENNA_c189_C1
*1471 ANTENNA_c191_X
*1472 ANTENNA_c192_Y
*1473 ANTENNA_c193_A2
*1474 ANTENNA_c193_C1
*1475 ANTENNA_c194_D1
*1476 ANTENNA_c196_A2
*1477 ANTENNA_c197_A0
*1478 ANTENNA_c197_A3
*1479 ANTENNA_c198_B
*1480 ANTENNA_c199_X
*1481 ANTENNA_c201_B
*1482 ANTENNA_c202_A
*1483 ANTENNA_c202_C
*1484 ANTENNA_c202_Y
*1485 ANTENNA_c203_A
*1486 ANTENNA_c203_B
*1487 ANTENNA_c203_X
*1488 ANTENNA_c204_A
*1489 ANTENNA_c204_B
*1490 ANTENNA_c204_D
*1491 ANTENNA_c205_B
*1492 ANTENNA_c206_Y
*1493 ANTENNA_c208_C
*1494 ANTENNA_c209_C
*1495 ANTENNA_c209_X
*1496 ANTENNA_c211_A2
*1497 ANTENNA_c211_B1
*1498 ANTENNA_c211_C1
*1499 ANTENNA_c211_D1
*1500 ANTENNA_c212_A1
*1501 ANTENNA_c212_S1
*1502 ANTENNA_c212_X
*1503 ANTENNA_c213_B1
*1504 ANTENNA_c213_D1
*1505 ANTENNA_c214_C
*1506 ANTENNA_c214_D
*1507 ANTENNA_c214_Y
*1508 ANTENNA_c216_C1
*1509 ANTENNA_c216_D1
*1510 ANTENNA_c217_B_N
*1511 ANTENNA_c218_A1
*1512 ANTENNA_c218_A3
*1513 ANTENNA_c218_S0
*1514 ANTENNA_c219_A2
*1515 ANTENNA_c219_A3
*1516 ANTENNA_c220_A
*1517 ANTENNA_c220_B
*1518 ANTENNA_c220_C_N
*1519 ANTENNA_c221_A
*1520 ANTENNA_c221_B
*1521 ANTENNA_c222_B
*1522 ANTENNA_c222_Y
*1523 ANTENNA_c223_C
*1524 ANTENNA_c223_Y
*1525 ANTENNA_c224_B
*1526 ANTENNA_c224_Y
*1527 ANTENNA_c225_A
*1528 ANTENNA_c225_Y
*1529 ANTENNA_c226_A
*1530 ANTENNA_c226_B
*1531 ANTENNA_c226_C
*1532 ANTENNA_c227_A
*1533 ANTENNA_c227_B
*1534 ANTENNA_c227_C_N
*1535 ANTENNA_c228_B
*1536 ANTENNA_c228_C
*1537 ANTENNA_c229_A2
*1538 ANTENNA_c229_B1
*1539 ANTENNA_c229_C1
*1540 ANTENNA_c230_B
*1541 ANTENNA_c231_B
*1542 ANTENNA_c231_Y
*1543 ANTENNA_c232_A
*1544 ANTENNA_c232_B
*1545 ANTENNA_c232_X
*1546 ANTENNA_c233_B
*1547 ANTENNA_c233_C_N
*1548 ANTENNA_c234_A2
*1549 ANTENNA_c234_D1
*1550 ANTENNA_c235_A1
*1551 ANTENNA_c235_B1
*1552 ANTENNA_c235_C1
*1553 ANTENNA_c236_A1
*1554 ANTENNA_c236_B1
*1555 ANTENNA_c236_C1
*1556 ANTENNA_c237_A2
*1557 ANTENNA_c237_S0
*1558 ANTENNA_c238_B
*1559 ANTENNA_c238_C
*1560 ANTENNA_c238_X
*1561 ANTENNA_c239_A1
*1562 ANTENNA_c239_A2
*1563 ANTENNA_c239_S0
*1564 ANTENNA_c239_S1
*1565 ANTENNA_c241_A1
*1566 ANTENNA_c241_A2
*1567 ANTENNA_c242_A_N
*1568 ANTENNA_c242_C
*1569 ANTENNA_c242_D
*1570 ANTENNA_c244_A0
*1571 ANTENNA_c244_A1
*1572 ANTENNA_c246_A
*1573 ANTENNA_c247_A_N
*1574 ANTENNA_c247_B
*1575 ANTENNA_c247_C
*1576 ANTENNA_c248_A
*1577 ANTENNA_c249_B
*1578 ANTENNA_c249_C
*1579 ANTENNA_c250_CLK
*1580 ANTENNA_c250_RESET_B
*1581 ANTENNA_c250_SCE
*1582 ANTENNA_c251_C
*1583 ANTENNA_c251_D
*1584 ANTENNA_c252_A
*1585 ANTENNA_c253_CLK
*1586 ANTENNA_c253_RESET_B
*1587 ANTENNA_c253_SCD
*1588 ANTENNA_c254_C
*1589 ANTENNA_c255_A1
*1590 ANTENNA_c255_C1
*1591 ANTENNA_c257_B
*1592 ANTENNA_c257_C
*1593 ANTENNA_c258_A
*1594 ANTENNA_c259_S0
*1595 ANTENNA_c260_A3
*1596 ANTENNA_c261_A2
*1597 ANTENNA_c262_CLK_N
*1598 ANTENNA_c262_D
*1599 ANTENNA_c263_A1
*1600 ANTENNA_c263_A3
*1601 ANTENNA_c264_A
*1602 ANTENNA_c266_B
*1603 ANTENNA_c267_B
*1604 ANTENNA_c268_A
*1605 ANTENNA_c269_D1
*1606 ANTENNA_c269_Y
*1607 ANTENNA_c270_B_N
*1608 ANTENNA_c272_B
*1609 ANTENNA_c272_X
*1610 ANTENNA_c273_C
*1611 ANTENNA_c273_X
*1612 ANTENNA_c274_A_N
*1613 ANTENNA_c275_B_N
*1614 ANTENNA_c276_B
*1615 ANTENNA_c277_B
*1616 ANTENNA_c277_C
*1617 ANTENNA_c277_X
*1618 ANTENNA_c278_B
*1619 ANTENNA_c278_Y
*1620 ANTENNA_c279_A
*1621 ANTENNA_c279_C
*1622 ANTENNA_c280_X
*1623 ANTENNA_c281_C
*1624 ANTENNA_c282_A3
*1625 ANTENNA_c282_X
*1626 ANTENNA_c284_C
*1627 ANTENNA_c285_B
*1628 ANTENNA_c286_B
*1629 ANTENNA_c287_A_N
*1630 ANTENNA_c287_B
*1631 ANTENNA_c288_X
*1632 ANTENNA_c289_C_N
*1633 ANTENNA_c290_C
*1634 ANTENNA_c290_Y
*1635 ANTENNA_c291_C1
*1636 ANTENNA_c291_D1
*1637 ANTENNA_c292_A
*1638 ANTENNA_c293_B
*1639 ANTENNA_c293_X
*1640 ANTENNA_c294_C
*1641 ANTENNA_c295_C
*1642 ANTENNA_c295_X
*1643 ANTENNA_c296_B1
*1644 ANTENNA_c296_C1
*1645 ANTENNA_c297_B
*1646 ANTENNA_c297_C
*1647 ANTENNA_c298_C_N
*1648 ANTENNA_c298_X
*1649 ANTENNA_c299_C
*1650 ANTENNA_c300_C
*1651 ANTENNA_c301_C
*1652 ANTENNA_c302_S0
*1653 ANTENNA_c302_S1
*1654 ANTENNA_c304_A2
*1655 ANTENNA_c305_X
*1656 ANTENNA_c307_S1
*1657 ANTENNA_c307_X
*1658 ANTENNA_c308_A
*1659 ANTENNA_c308_C
*1660 ANTENNA_c308_D_N
*1661 ANTENNA_c310_B_N
*1662 ANTENNA_c311_B
*1663 ANTENNA_c311_C
*1664 ANTENNA_c312_A_N
*1665 ANTENNA_c313_A1
*1666 ANTENNA_c313_A2
*1667 ANTENNA_c313_B1
*1668 ANTENNA_c314_Y
*1669 ANTENNA_c315_Y
*1670 ANTENNA_c316_7_A
*1671 ANTENNA_c316_8_A
*1672 ANTENNA_c316_9_A
*1673 ANTENNA_c318_C_N
*1674 ANTENNA_c319_A1
*1675 ANTENNA_c319_A3
*1676 ANTENNA_c319_S0
*1677 ANTENNA_c319_X
*1678 ANTENNA_c321_A2
*1679 ANTENNA_c322_A0
*1680 ANTENNA_c322_A3
*1681 ANTENNA_c322_S0
*1682 ANTENNA_c322_S1
*1683 ANTENNA_c323_A2
*1684 ANTENNA_c323_A3
*1685 ANTENNA_c324_A
*1686 ANTENNA_c325_X
*1687 ANTENNA_c326_A3
*1688 ANTENNA_c327_A2
*1689 ANTENNA_c327_A3
*1690 ANTENNA_c327_S0
*1691 ANTENNA_c328_10_A
*1692 ANTENNA_c328_11_A
*1693 ANTENNA_c328_12_A
*1694 ANTENNA_c329_A2
*1695 ANTENNA_c329_A3
*1696 ANTENNA_c329_S0
*1697 ANTENNA_c330_B
*1698 ANTENNA_c330_C
*1699 ANTENNA_c331_A0
*1700 ANTENNA_c331_A1
*1701 ANTENNA_c331_A2
*1702 ANTENNA_c331_A3
*1703 ANTENNA_c331_S0
*1704 ANTENNA_c332_A
*1705 ANTENNA_c332_C
*1706 ANTENNA_c334_A0
*1707 ANTENNA_c334_A3
*1708 ANTENNA_c334_S0
*1709 ANTENNA_c335_B1
*1710 ANTENNA_c335_D1
*1711 ANTENNA_c336_A
*1712 ANTENNA_c337_CLK_N
*1713 ANTENNA_c337_D
*1714 ANTENNA_c337_SCD
*1715 ANTENNA_c337_SCE
*1716 ANTENNA_c337_SET_B
*1717 ANTENNA_c338_A_N
*1718 ANTENNA_c338_B
*1719 ANTENNA_c338_Y
*1720 ANTENNA_c339_C
*1721 ANTENNA_c340_A3
*1722 ANTENNA_c340_S0
*1723 ANTENNA_c344_D
*1724 ANTENNA_c345_B1
*1725 ANTENNA_c345_C1
*1726 ANTENNA_c346_CLK
*1727 ANTENNA_c346_Q
*1728 ANTENNA_c346_SCD
*1729 ANTENNA_c346_SCE
*1730 ANTENNA_c347_A
*1731 ANTENNA_c347_B
*1732 ANTENNA_c347_Y
*1733 ANTENNA_c348_B
*1734 ANTENNA_c348_C
*1735 ANTENNA_c349_B
*1736 ANTENNA_c350_A
*1737 ANTENNA_c350_D
*1738 ANTENNA_c350_Y
*1739 ANTENNA_c351_A2
*1740 ANTENNA_c351_A3
*1741 ANTENNA_c351_S0
*1742 ANTENNA_c352_B
*1743 ANTENNA_c352_C_N
*1744 ANTENNA_c353_B
*1745 ANTENNA_c353_C_N
*1746 ANTENNA_c354_A
*1747 ANTENNA_c354_B
*1748 ANTENNA_c354_C_N
*1749 ANTENNA_c356_CLK_N
*1750 ANTENNA_c356_D
*1751 ANTENNA_c356_RESET_B
*1752 ANTENNA_c356_SCD
*1753 ANTENNA_c356_SCE
*1754 ANTENNA_c356_SET_B
*1755 ANTENNA_c357_SCE
*1756 ANTENNA_c358_A
*1757 ANTENNA_c359_A
*1758 ANTENNA_c359_C
*1759 ANTENNA_c359_D
*1760 ANTENNA_c360_CLK
*1761 ANTENNA_c360_RESET_B
*1762 ANTENNA_c360_SCD
*1763 ANTENNA_c360_SET_B
*1764 ANTENNA_c361_CLK
*1765 ANTENNA_c361_RESET_B
*1766 ANTENNA_c362_C
*1767 ANTENNA_c362_X
*1768 ANTENNA_c363_A1
*1769 ANTENNA_c363_D1
*1770 ANTENNA_c364_SCE
*1771 ANTENNA_c365_D1
*1772 ANTENNA_c366_D
*1773 ANTENNA_c366_RESET_B
*1774 ANTENNA_c366_SCE
*1775 ANTENNA_c367_A2
*1776 ANTENNA_c367_A3
*1777 ANTENNA_c367_S0
*1778 ANTENNA_c367_S1
*1779 ANTENNA_c368_SCE
*1780 ANTENNA_c369_A2
*1781 ANTENNA_c370_Q
*1782 ANTENNA_c370_SCD
*1783 ANTENNA_c371_A0
*1784 ANTENNA_c372_S1
*1785 ANTENNA_c373_A0
*1786 ANTENNA_c373_A1
*1787 ANTENNA_c373_A2
*1788 ANTENNA_c392_A0
*1789 ANTENNA_c392_A1
*1790 ANTENNA_c392_A3
*1791 ANTENNA_c392_S0
*1792 ANTENNA_c393_A0
*1793 ANTENNA_c393_A3
*1794 ANTENNA_c393_S0
*1795 ANTENNA_c394_A0
*1796 ANTENNA_c394_A2
*1797 ANTENNA_c395_A0
*1798 ANTENNA_c395_A3
*1799 ANTENNA_c396_B_N
*1800 ANTENNA_c397_C
*1801 ANTENNA_c397_X
*1802 ANTENNA_c398_B
*1803 ANTENNA_c399_B
*1804 ANTENNA_c401_Y
*1805 ANTENNA_c402_C_N
*1806 ANTENNA_c403_D
*1807 ANTENNA_c404_C
*1808 ANTENNA_c404_Y
*1809 ANTENNA_c405_A2
*1810 ANTENNA_c405_B1
*1811 ANTENNA_c406_B
*1812 ANTENNA_c406_C
*1813 ANTENNA_c407_A
*1814 ANTENNA_c407_C
*1815 ANTENNA_c408_D
*1816 ANTENNA_c410_A
*1817 ANTENNA_c410_C
*1818 ANTENNA_c411_B
*1819 ANTENNA_c414_A0
*1820 ANTENNA_c414_A1
*1821 ANTENNA_c414_A3
*1822 ANTENNA_c415_Y
*1823 ANTENNA_c416_S1
*1824 ANTENNA_c417_A3
*1825 ANTENNA_c417_X
*1826 ANTENNA_c419_B
*1827 ANTENNA_c420_A
*1828 ANTENNA_c420_C
*1829 ANTENNA_c420_D_N
*1830 ANTENNA_c421_B
*1831 ANTENNA_c421_C
*1832 ANTENNA_c421_X
*1833 ANTENNA_c422_A
*1834 ANTENNA_c422_B
*1835 ANTENNA_c422_C_N
*1836 ANTENNA_c423_A_N
*1837 ANTENNA_c423_B
*1838 ANTENNA_c423_C
*1839 ANTENNA_c425_CLK_N
*1840 ANTENNA_c425_D
*1841 ANTENNA_c425_RESET_B
*1842 ANTENNA_c425_SCE
*1843 ANTENNA_c425_SET_B
*1844 ANTENNA_c426_B
*1845 ANTENNA_c426_C
*1846 ANTENNA_c428_C
*1847 ANTENNA_c429_B
*1848 ANTENNA_c429_X
*1849 ANTENNA_c430_A2