*SPEF "ieee 1481-1999"
*DESIGN "netlist_1"
*DATE "23:27:14 Saturday July 20, 2024"
*VENDOR "The OpenROAD Project"
*PROGRAM "OpenROAD"
*VERSION "d423155d69de7f683a23f6916ead418a615ad4ad"
*DESIGN_FLOW "NAME_SCOPE LOCAL" "PIN_CAP NONE"
*DIVIDER /
*DELIMITER :
*BUS_DELIMITER []
*T_UNIT 1 NS
*C_UNIT 1 PF
*R_UNIT 1 OHM
*L_UNIT 1 HENRY

*NAME_MAP
*3 clk
*4 in0
*5 in1
*6 in10
*7 in11
*8 in12
*9 in13
*10 in14
*11 in15
*12 in16
*13 in17
*14 in18
*15 in19
*16 in2
*17 in20
*18 in21
*19 in22
*20 in23
*21 in24
*22 in25
*23 in26
*24 in27
*25 in28
*26 in29
*27 in3
*28 in30
*29 in31
*30 in32
*31 in33
*32 in34
*33 in35
*34 in36
*35 in37
*36 in38
*37 in39
*38 in4
*39 in40
*40 in41
*41 in42
*42 in43
*43 in44
*44 in45
*45 in46
*46 in47
*47 in48
*48 in49
*49 in5
*50 in50
*51 in51
*52 in52
*53 in53
*54 in54
*55 in55
*56 in56
*57 in57
*58 in58
*59 in59
*60 in6
*61 in60
*62 in61
*63 in7
*64 in8
*65 in9
*66 out0
*67 out1
*68 out10
*69 out11
*70 out12
*71 out13
*72 out14
*73 out15
*74 out16
*75 out17
*76 out18
*77 out19
*78 out2
*79 out20
*80 out21
*81 out22
*82 out23
*83 out24
*84 out25
*85 out26
*86 out27
*87 out28
*88 out29
*89 out3
*90 out30
*91 out31
*92 out32
*93 out33
*94 out34
*95 out35
*96 out36
*97 out37
*98 out38
*99 out39
*100 out4
*101 out40
*102 out41
*103 out42
*104 out43
*105 out44
*106 out45
*107 out46
*108 out47
*109 out48
*110 out49
*111 out5
*112 out50
*113 out51
*114 out52
*115 out53
*116 out54
*117 out55
*118 out56
*119 out57
*120 out58
*121 out59
*122 out6
*123 out60
*124 out61
*125 out7
*126 out8
*127 out9
*128 rst
*129 clknet_0_clk
*130 clknet_0_net142
*131 clknet_0_net143
*132 clknet_0_net144
*133 clknet_0_net145
*134 clknet_0_net146
*135 clknet_0_net147
*136 clknet_0_net148
*137 clknet_0_net149
*138 clknet_0_net150
*139 clknet_0_net155
*140 clknet_0_net156
*141 clknet_0_net160
*142 clknet_0_net162
*143 clknet_0_net164
*144 clknet_0_net165
*145 clknet_0_net166
*146 clknet_0_net169
*147 clknet_0_net170
*148 clknet_0_net228
*149 clknet_0_net235
*150 clknet_0_net236
*151 clknet_0_net237
*152 clknet_0_net238
*153 clknet_0_net240
*154 clknet_0_net241
*155 clknet_0_net249
*156 clknet_0_net250
*157 clknet_0_net255
*158 clknet_0_net260
*159 clknet_0_net261
*160 clknet_0_net269
*161 clknet_0_net286
*162 clknet_0_net289
*163 clknet_0_net378
*164 clknet_0_net379
*165 clknet_0_net381
*166 clknet_0_net394
*167 clknet_0_net439
*168 clknet_0_net463
*169 clknet_0_net474
*170 clknet_0_net476
*171 clknet_0_net479
*172 clknet_0_net489
*173 clknet_0_net491
*174 clknet_0_net501
*175 clknet_0_net503
*176 clknet_0_net513
*177 clknet_0_net514
*178 clknet_0_net530
*179 clknet_0_net547
*180 clknet_0_net577
*181 clknet_0_net578
*182 clknet_0_net585
*183 clknet_0_net586
*184 clknet_0_net592
*185 clknet_0_net596
*186 clknet_0_net597
*187 clknet_0_net610
*188 clknet_0_net615
*189 clknet_0_net619
*190 clknet_0_net631
*191 clknet_0_net642
*192 clknet_0_net643
*193 clknet_0_net670
*194 clknet_0_net671
*195 clknet_0_net672
*196 clknet_0_net689
*197 clknet_0_net690
*198 clknet_0_net691
*199 clknet_0_net707
*200 clknet_0_net708
*201 clknet_0_net726
*202 clknet_0_net794
*203 clknet_0_net796
*204 clknet_0_net801
*205 clknet_0_net812
*206 clknet_0_net815
*207 clknet_0_net818
*208 clknet_0_net823
*209 clknet_0_net829
*210 clknet_0_net834
*211 clknet_0_net835
*212 clknet_0_net843
*213 clknet_0_net848
*214 clknet_0_net852
*215 clknet_1_0__leaf_net142
*216 clknet_1_0__leaf_net143
*217 clknet_1_0__leaf_net144
*218 clknet_1_0__leaf_net145
*219 clknet_1_0__leaf_net146
*220 clknet_1_0__leaf_net147
*221 clknet_1_0__leaf_net148
*222 clknet_1_0__leaf_net149
*223 clknet_1_0__leaf_net150
*224 clknet_1_0__leaf_net155
*225 clknet_1_0__leaf_net156
*226 clknet_1_0__leaf_net160
*227 clknet_1_0__leaf_net162
*228 clknet_1_0__leaf_net164
*229 clknet_1_0__leaf_net165
*230 clknet_1_0__leaf_net166
*231 clknet_1_0__leaf_net169
*232 clknet_1_0__leaf_net170
*233 clknet_1_0__leaf_net228
*234 clknet_1_0__leaf_net235
*235 clknet_1_0__leaf_net236
*236 clknet_1_0__leaf_net237
*237 clknet_1_0__leaf_net238
*238 clknet_1_0__leaf_net240
*239 clknet_1_0__leaf_net241
*240 clknet_1_0__leaf_net249
*241 clknet_1_0__leaf_net250
*242 clknet_1_0__leaf_net255
*243 clknet_1_0__leaf_net260
*244 clknet_1_0__leaf_net261
*245 clknet_1_0__leaf_net269
*246 clknet_1_0__leaf_net286
*247 clknet_1_0__leaf_net289
*248 clknet_1_0__leaf_net378
*249 clknet_1_0__leaf_net379
*250 clknet_1_0__leaf_net381
*251 clknet_1_0__leaf_net394
*252 clknet_1_0__leaf_net439
*253 clknet_1_0__leaf_net463
*254 clknet_1_0__leaf_net474
*255 clknet_1_0__leaf_net476
*256 clknet_1_0__leaf_net479
*257 clknet_1_0__leaf_net489
*258 clknet_1_0__leaf_net491
*259 clknet_1_0__leaf_net501
*260 clknet_1_0__leaf_net503
*261 clknet_1_0__leaf_net513
*262 clknet_1_0__leaf_net514
*263 clknet_1_0__leaf_net530
*264 clknet_1_0__leaf_net547
*265 clknet_1_0__leaf_net577
*266 clknet_1_0__leaf_net578
*267 clknet_1_0__leaf_net585
*268 clknet_1_0__leaf_net586
*269 clknet_1_0__leaf_net592
*270 clknet_1_0__leaf_net596
*271 clknet_1_0__leaf_net597
*272 clknet_1_0__leaf_net610
*273 clknet_1_0__leaf_net615
*274 clknet_1_0__leaf_net619
*275 clknet_1_0__leaf_net631
*276 clknet_1_0__leaf_net642
*277 clknet_1_0__leaf_net643
*278 clknet_1_0__leaf_net670
*279 clknet_1_0__leaf_net671
*280 clknet_1_0__leaf_net672
*281 clknet_1_0__leaf_net689
*282 clknet_1_0__leaf_net690
*283 clknet_1_0__leaf_net691
*284 clknet_1_0__leaf_net707
*285 clknet_1_0__leaf_net708
*286 clknet_1_0__leaf_net726
*287 clknet_1_0__leaf_net794
*288 clknet_1_0__leaf_net796
*289 clknet_1_0__leaf_net801
*290 clknet_1_0__leaf_net812
*291 clknet_1_0__leaf_net815
*292 clknet_1_0__leaf_net818
*293 clknet_1_0__leaf_net823
*294 clknet_1_0__leaf_net829
*295 clknet_1_0__leaf_net834
*296 clknet_1_0__leaf_net835
*297 clknet_1_0__leaf_net843
*298 clknet_1_0__leaf_net848
*299 clknet_1_0__leaf_net852
*300 clknet_1_1__leaf_net142
*301 clknet_1_1__leaf_net143
*302 clknet_1_1__leaf_net144
*303 clknet_1_1__leaf_net145
*304 clknet_1_1__leaf_net146
*305 clknet_1_1__leaf_net147
*306 clknet_1_1__leaf_net148
*307 clknet_1_1__leaf_net149
*308 clknet_1_1__leaf_net150
*309 clknet_1_1__leaf_net155
*310 clknet_1_1__leaf_net156
*311 clknet_1_1__leaf_net160
*312 clknet_1_1__leaf_net162
*313 clknet_1_1__leaf_net164
*314 clknet_1_1__leaf_net165
*315 clknet_1_1__leaf_net166
*316 clknet_1_1__leaf_net169
*317 clknet_1_1__leaf_net170
*318 clknet_1_1__leaf_net228
*319 clknet_1_1__leaf_net235
*320 clknet_1_1__leaf_net236
*321 clknet_1_1__leaf_net237
*322 clknet_1_1__leaf_net238
*323 clknet_1_1__leaf_net240
*324 clknet_1_1__leaf_net241
*325 clknet_1_1__leaf_net249
*326 clknet_1_1__leaf_net250
*327 clknet_1_1__leaf_net255
*328 clknet_1_1__leaf_net260
*329 clknet_1_1__leaf_net261
*330 clknet_1_1__leaf_net269
*331 clknet_1_1__leaf_net286
*332 clknet_1_1__leaf_net289
*333 clknet_1_1__leaf_net378
*334 clknet_1_1__leaf_net379
*335 clknet_1_1__leaf_net381
*336 clknet_1_1__leaf_net394
*337 clknet_1_1__leaf_net439
*338 clknet_1_1__leaf_net463
*339 clknet_1_1__leaf_net474
*340 clknet_1_1__leaf_net476
*341 clknet_1_1__leaf_net479
*342 clknet_1_1__leaf_net489
*343 clknet_1_1__leaf_net491
*344 clknet_1_1__leaf_net501
*345 clknet_1_1__leaf_net503
*346 clknet_1_1__leaf_net513
*347 clknet_1_1__leaf_net514
*348 clknet_1_1__leaf_net530
*349 clknet_1_1__leaf_net547
*350 clknet_1_1__leaf_net577
*351 clknet_1_1__leaf_net578
*352 clknet_1_1__leaf_net585
*353 clknet_1_1__leaf_net586
*354 clknet_1_1__leaf_net592
*355 clknet_1_1__leaf_net596
*356 clknet_1_1__leaf_net597
*357 clknet_1_1__leaf_net610
*358 clknet_1_1__leaf_net615
*359 clknet_1_1__leaf_net619
*360 clknet_1_1__leaf_net631
*361 clknet_1_1__leaf_net642
*362 clknet_1_1__leaf_net643
*363 clknet_1_1__leaf_net670
*364 clknet_1_1__leaf_net671
*365 clknet_1_1__leaf_net672
*366 clknet_1_1__leaf_net689
*367 clknet_1_1__leaf_net690
*368 clknet_1_1__leaf_net691
*369 clknet_1_1__leaf_net707
*370 clknet_1_1__leaf_net708
*371 clknet_1_1__leaf_net726
*372 clknet_1_1__leaf_net794
*373 clknet_1_1__leaf_net796
*374 clknet_1_1__leaf_net801
*375 clknet_1_1__leaf_net812
*376 clknet_1_1__leaf_net815
*377 clknet_1_1__leaf_net818
*378 clknet_1_1__leaf_net823
*379 clknet_1_1__leaf_net829
*380 clknet_1_1__leaf_net834
*381 clknet_1_1__leaf_net835
*382 clknet_1_1__leaf_net843
*383 clknet_1_1__leaf_net848
*384 clknet_1_1__leaf_net852
*385 clknet_2_0__leaf_clk
*386 clknet_2_1__leaf_clk
*387 clknet_2_2__leaf_clk
*388 clknet_2_3__leaf_clk
*389 clknet_leaf_0_clk
*390 clknet_leaf_10_clk
*391 clknet_leaf_11_clk
*392 clknet_leaf_12_clk
*393 clknet_leaf_13_clk
*394 clknet_leaf_14_clk
*395 clknet_leaf_15_clk
*396 clknet_leaf_16_clk
*397 clknet_leaf_17_clk
*398 clknet_leaf_18_clk
*399 clknet_leaf_19_clk
*400 clknet_leaf_1_clk
*401 clknet_leaf_20_clk
*402 clknet_leaf_21_clk
*403 clknet_leaf_22_clk
*404 clknet_leaf_23_clk
*405 clknet_leaf_24_clk
*406 clknet_leaf_25_clk
*407 clknet_leaf_26_clk
*408 clknet_leaf_27_clk
*409 clknet_leaf_28_clk
*410 clknet_leaf_29_clk
*411 clknet_leaf_2_clk
*412 clknet_leaf_30_clk
*413 clknet_leaf_31_clk
*414 clknet_leaf_32_clk
*415 clknet_leaf_3_clk
*416 clknet_leaf_4_clk
*417 clknet_leaf_5_clk
*418 clknet_leaf_6_clk
*419 clknet_leaf_7_clk
*420 clknet_leaf_8_clk
*421 clknet_leaf_9_clk
*422 net0
*423 net1
*424 net10
*425 net100
*426 net101
*427 net102
*428 net103
*429 net104
*430 net105
*431 net106
*432 net107
*433 net108
*434 net109
*435 net11
*436 net110
*437 net111
*438 net112
*439 net113
*440 net114
*441 net115
*442 net116
*443 net117
*444 net118
*445 net119
*446 net12
*447 net120
*448 net121
*449 net122
*450 net123
*451 net124
*452 net125
*453 net126
*454 net127
*455 net128
*456 net129
*457 net13
*458 net130
*459 net131
*460 net132
*461 net133
*462 net134
*463 net135
*464 net136
*465 net137
*466 net138
*467 net139
*468 net14
*469 net140
*470 net141
*471 net142
*472 net143
*473 net144
*474 net145
*475 net146
*476 net147
*477 net148
*478 net149
*479 net15
*480 net150
*481 net151
*482 net152
*483 net153
*484 net154
*485 net155
*486 net156
*487 net157
*488 net158
*489 net159
*490 net16
*491 net160
*492 net161
*493 net162
*494 net163
*495 net164
*496 net165
*497 net166
*498 net167
*499 net168
*500 net169
*501 net17
*502 net170
*503 net171
*504 net172
*505 net173
*506 net174
*507 net175
*508 net176
*509 net177
*510 net178
*511 net179
*512 net18
*513 net180
*514 net181
*515 net182
*516 net183
*517 net184
*518 net185
*519 net186
*520 net187
*521 net188
*522 net189
*523 net19
*524 net190
*525 net191
*526 net192
*527 net193
*528 net194
*529 net195
*530 net196
*531 net197
*532 net198
*533 net199
*534 net2
*535 net20
*536 net200
*537 net201
*538 net202
*539 net203
*540 net204
*541 net205
*542 net206
*543 net207
*544 net208
*545 net209
*546 net21
*547 net210
*548 net211
*549 net212
*550 net213
*551 net214
*552 net215
*553 net216
*554 net217
*555 net218
*556 net219
*557 net22
*558 net220
*559 net221
*560 net222
*561 net223
*562 net224
*563 net225
*564 net226
*565 net227
*566 net228
*567 net229
*568 net23
*569 net230
*570 net231
*571 net232
*572 net233
*573 net234
*574 net235
*575 net236
*576 net237
*577 net238
*578 net239
*579 net24
*580 net240
*581 net241
*582 net242
*583 net243
*584 net244
*585 net245
*586 net246
*587 net247
*588 net248
*589 net249
*590 net25
*591 net250
*592 net251
*593 net252
*594 net253
*595 net254
*596 net255
*597 net256
*598 net257
*599 net258
*600 net259
*601 net26
*602 net260
*603 net261
*604 net262
*605 net263
*606 net264
*607 net265
*608 net266
*609 net267
*610 net268
*611 net269
*612 net27
*613 net270
*614 net271
*615 net272
*616 net273
*617 net274
*618 net275
*619 net276
*620 net277
*621 net278
*622 net279
*623 net28
*624 net280
*625 net281
*626 net282
*627 net283
*628 net284
*629 net285
*630 net286
*631 net287
*632 net288
*633 net289
*634 net29
*635 net290
*636 net291
*637 net292
*638 net293
*639 net294
*640 net295
*641 net296
*642 net297
*643 net298
*644 net299
*645 net3
*646 net30
*647 net300
*648 net301
*649 net302
*650 net303
*651 net304
*652 net305
*653 net306
*654 net307
*655 net308
*656 net309
*657 net31
*658 net310
*659 net311
*660 net312
*661 net313
*662 net314
*663 net315
*664 net316
*665 net317
*666 net318
*667 net319
*668 net32
*669 net320
*670 net321
*671 net322
*672 net323
*673 net324
*674 net325
*675 net326
*676 net327
*677 net328
*678 net329
*679 net33
*680 net330
*681 net331
*682 net332
*683 net333
*684 net334
*685 net335
*686 net336
*687 net337
*688 net338
*689 net339
*690 net34
*691 net340
*692 net341
*693 net342
*694 net343
*695 net344
*696 net345
*697 net346
*698 net347
*699 net348
*700 net349
*701 net35
*702 net350
*703 net351
*704 net352
*705 net353
*706 net354
*707 net355
*708 net356
*709 net357
*710 net358
*711 net359
*712 net36
*713 net360
*714 net361
*715 net362
*716 net363
*717 net364
*718 net365
*719 net366
*720 net367
*721 net368
*722 net369
*723 net37
*724 net370
*725 net371
*726 net372
*727 net373
*728 net374
*729 net375
*730 net376
*731 net377
*732 net378
*733 net379
*734 net38
*735 net380
*736 net381
*737 net382
*738 net383
*739 net384
*740 net385
*741 net386
*742 net387
*743 net388
*744 net389
*745 net39
*746 net390
*747 net391
*748 net392
*749 net393
*750 net394
*751 net395
*752 net396
*753 net397
*754 net398
*755 net399
*756 net4
*757 net40
*758 net400
*759 net401
*760 net402
*761 net403
*762 net404
*763 net405
*764 net406
*765 net407
*766 net408
*767 net409
*768 net41
*769 net410
*770 net411
*771 net412
*772 net413
*773 net414
*774 net415
*775 net416
*776 net417
*777 net418
*778 net419
*779 net42
*780 net420
*781 net421
*782 net422
*783 net423
*784 net424
*785 net425
*786 net426
*787 net427
*788 net428
*789 net429
*790 net43
*791 net430
*792 net431
*793 net432
*794 net433
*795 net434
*796 net435
*797 net436
*798 net437
*799 net438
*800 net439
*801 net44
*802 net440
*803 net441
*804 net442
*805 net443
*806 net444
*807 net445
*808 net446
*809 net447
*810 net448
*811 net449
*812 net45
*813 net450
*814 net451
*815 net452
*816 net453
*817 net454
*818 net455
*819 net456
*820 net457
*821 net458
*822 net459
*823 net46
*824 net460
*825 net461
*826 net462
*827 net463
*828 net464
*829 net465
*830 net466
*831 net467
*832 net468
*833 net469
*834 net47
*835 net470
*836 net471
*837 net472
*838 net473
*839 net474
*840 net475
*841 net476
*842 net477
*843 net478
*844 net479
*845 net48
*846 net480
*847 net481
*848 net482
*849 net483
*850 net484
*851 net485
*852 net486
*853 net487
*854 net488
*855 net489
*856 net49
*857 net490
*858 net491
*859 net492
*860 net493
*861 net494
*862 net495
*863 net496
*864 net497
*865 net498
*866 net499
*867 net5
*868 net50
*869 net500
*870 net501
*871 net502
*872 net503
*873 net504
*874 net505
*875 net506
*876 net507
*877 net508
*878 net509
*879 net51
*880 net510
*881 net511
*882 net512
*883 net513
*884 net514
*885 net515
*886 net516
*887 net517
*888 net518
*889 net519
*890 net52
*891 net520
*892 net521
*893 net522
*894 net523
*895 net524
*896 net525
*897 net526
*898 net527
*899 net528
*900 net529
*901 net53
*902 net530
*903 net531
*904 net532
*905 net533
*906 net534
*907 net535
*908 net536
*909 net537
*910 net538
*911 net539
*912 net54
*913 net540
*914 net541
*915 net542
*916 net543
*917 net544
*918 net545
*919 net546
*920 net547
*921 net548
*922 net549
*923 net55
*924 net550
*925 net551
*926 net552
*927 net553
*928 net554
*929 net555
*930 net556
*931 net557
*932 net558
*933 net559
*934 net56
*935 net560
*936 net561
*937 net562
*938 net563
*939 net564
*940 net565
*941 net566
*942 net567
*943 net568
*944 net569
*945 net57
*946 net570
*947 net571
*948 net572
*949 net573
*950 net574
*951 net575
*952 net576
*953 net577
*954 net578
*955 net579
*956 net58
*957 net580
*958 net581
*959 net582
*960 net583
*961 net584
*962 net585
*963 net586
*964 net587
*965 net588
*966 net589
*967 net59
*968 net590
*969 net591
*970 net592
*971 net593
*972 net594
*973 net595
*974 net596
*975 net597
*976 net598
*977 net599
*978 net6
*979 net60
*980 net600
*981 net601
*982 net602
*983 net603
*984 net604
*985 net605
*986 net606
*987 net607
*988 net608
*989 net609
*990 net61
*991 net610
*992 net611
*993 net612
*994 net613
*995 net614
*996 net615
*997 net616
*998 net617
*999 net618
*1000 net619
*1001 net62
*1002 net620
*1003 net621
*1004 net622
*1005 net623
*1006 net624
*1007 net625
*1008 net626
*1009 net627
*1010 net628
*1011 net629
*1012 net63
*1013 net630
*1014 net631
*1015 net632
*1016 net633
*1017 net634
*1018 net635
*1019 net636
*1020 net637
*1021 net638
*1022 net639
*1023 net64
*1024 net640
*1025 net641
*1026 net642
*1027 net643
*1028 net644
*1029 net645
*1030 net646
*1031 net647
*1032 net648
*1033 net649
*1034 net65
*1035 net650
*1036 net651
*1037 net652
*1038 net653
*1039 net654
*1040 net655
*1041 net656
*1042 net657
*1043 net658
*1044 net659
*1045 net66
*1046 net660
*1047 net661
*1048 net662
*1049 net663
*1050 net664
*1051 net665
*1052 net666
*1053 net667
*1054 net668
*1055 net669
*1056 net67
*1057 net670
*1058 net671
*1059 net672
*1060 net673
*1061 net674
*1062 net675
*1063 net676
*1064 net677
*1065 net678
*1066 net679
*1067 net68
*1068 net680
*1069 net681
*1070 net682
*1071 net683
*1072 net684
*1073 net685
*1074 net686
*1075 net687
*1076 net688
*1077 net689
*1078 net69
*1079 net690
*1080 net691
*1081 net692
*1082 net693
*1083 net694
*1084 net695
*1085 net696
*1086 net697
*1087 net698
*1088 net699
*1089 net7
*1090 net70
*1091 net700
*1092 net701
*1093 net702
*1094 net703
*1095 net704
*1096 net705
*1097 net706
*1098 net707
*1099 net708
*1100 net709
*1101 net71
*1102 net710
*1103 net711
*1104 net712
*1105 net713
*1106 net714
*1107 net715
*1108 net716
*1109 net717
*1110 net718
*1111 net719
*1112 net72
*1113 net720
*1114 net721
*1115 net722
*1116 net723
*1117 net724
*1118 net725
*1119 net726
*1120 net727
*1121 net728
*1122 net729
*1123 net73
*1124 net730
*1125 net731
*1126 net732
*1127 net733
*1128 net734
*1129 net735
*1130 net736
*1131 net737
*1132 net738
*1133 net739
*1134 net74
*1135 net740
*1136 net741
*1137 net742
*1138 net743
*1139 net744
*1140 net745
*1141 net746
*1142 net747
*1143 net748
*1144 net749
*1145 net75
*1146 net750
*1147 net751
*1148 net752
*1149 net753
*1150 net754
*1151 net755
*1152 net756
*1153 net757
*1154 net758
*1155 net759
*1156 net76
*1157 net760
*1158 net761
*1159 net762
*1160 net763
*1161 net764
*1162 net765
*1163 net766
*1164 net767
*1165 net768
*1166 net769
*1167 net77
*1168 net770
*1169 net771
*1170 net772
*1171 net773
*1172 net774
*1173 net775
*1174 net776
*1175 net777
*1176 net778
*1177 net779
*1178 net78
*1179 net780
*1180 net781
*1181 net782
*1182 net783
*1183 net784
*1184 net785
*1185 net786
*1186 net787
*1187 net788
*1188 net789
*1189 net79
*1190 net790
*1191 net791
*1192 net792
*1193 net793
*1194 net794
*1195 net795
*1196 net796
*1197 net797
*1198 net798
*1199 net799
*1200 net8
*1201 net80
*1202 net800
*1203 net801
*1204 net802
*1205 net803
*1206 net804
*1207 net805
*1208 net806
*1209 net807
*1210 net808
*1211 net809
*1212 net81
*1213 net810
*1214 net811
*1215 net812
*1216 net813
*1217 net814
*1218 net815
*1219 net816
*1220 net817
*1221 net818
*1222 net819
*1223 net82
*1224 net820
*1225 net821
*1226 net822
*1227 net823
*1228 net824
*1229 net825
*1230 net826
*1231 net827
*1232 net828
*1233 net829
*1234 net83
*1235 net830
*1236 net831
*1237 net832
*1238 net833
*1239 net834
*1240 net835
*1241 net836
*1242 net837
*1243 net838
*1244 net839
*1245 net84
*1246 net840
*1247 net841
*1248 net842
*1249 net843
*1250 net844
*1251 net845
*1252 net846
*1253 net847
*1254 net848
*1255 net849
*1256 net85
*1257 net850
*1258 net851
*1259 net852
*1260 net853
*1261 net854
*1262 net855
*1263 net856
*1264 net857
*1265 net858
*1266 net859
*1267 net86
*1268 net860
*1269 net861
*1270 net862
*1271 net863
*1272 net864
*1273 net865
*1274 net866
*1275 net867
*1276 net868
*1277 net869
*1278 net87
*1279 net870
*1280 net871
*1281 net872
*1282 net873
*1283 net874
*1284 net875
*1285 net876
*1286 net877
*1287 net878
*1288 net879
*1289 net88
*1290 net880
*1291 net881
*1292 net882
*1293 net883
*1294 net884
*1295 net885
*1296 net886
*1297 net887
*1298 net888
*1299 net889
*1300 net89
*1301 net890
*1302 net891
*1303 net892
*1304 net893
*1305 net894
*1306 net895
*1307 net896
*1308 net897
*1309 net898
*1310 net899
*1311 net9
*1312 net90
*1313 net900
*1314 net901
*1315 net902
*1316 net903
*1317 net904
*1318 net905
*1319 net906
*1320 net907
*1321 net908
*1322 net909
*1323 net91
*1324 net910
*1325 net911
*1326 net912
*1327 net913
*1328 net914
*1329 net915
*1330 net916
*1331 net917
*1332 net918
*1333 net919
*1334 net92
*1335 net920
*1336 net921
*1337 net922
*1338 net923
*1339 net924
*1340 net925
*1341 net926
*1342 net927
*1343 net928
*1344 net929
*1345 net93
*1346 net930
*1347 net931
*1348 net932
*1349 net933
*1350 net934
*1351 net935
*1352 net936
*1353 net937
*1354 net938
*1355 net939
*1356 net94
*1357 net940
*1358 net941
*1359 net942
*1360 net943
*1361 net944
*1362 net945
*1363 net946
*1364 net947
*1365 net948
*1366 net949
*1367 net95
*1368 net950
*1369 net951
*1370 net952
*1371 net953
*1372 net954
*1373 net955
*1374 net956
*1375 net957
*1376 net958
*1377 net959
*1378 net96
*1379 net960
*1380 net961
*1381 net962
*1382 net963
*1383 net964
*1384 net965
*1385 net966
*1386 net967
*1387 net968
*1388 net969
*1389 net97
*1390 net970
*1391 net971
*1392 net972
*1393 net973
*1394 net974
*1395 net975
*1396 net976
*1397 net977
*1398 net978
*1399 net98
*1400 net99
*1401 ANTENNA_1
*1402 ANTENNA_c100_A2
*1403 ANTENNA_c100_S1
*1404 ANTENNA_c101_A
*1405 ANTENNA_c102_A2
*1406 ANTENNA_c102_S1
*1407 ANTENNA_c104_S0
*1408 ANTENNA_c108_A
*1409 ANTENNA_c113_B
*1410 ANTENNA_c116_B
*1411 ANTENNA_c122_D1
*1412 ANTENNA_c124_S1
*1413 ANTENNA_c126_A_N
*1414 ANTENNA_c126_B
*1415 ANTENNA_c127_A
*1416 ANTENNA_c127_B
*1417 ANTENNA_c127_C
*1418 ANTENNA_c128_B
*1419 ANTENNA_c128_C_N
*1420 ANTENNA_c129_A0
*1421 ANTENNA_c129_A1
*1422 ANTENNA_c129_A3
*1423 ANTENNA_c129_X
*1424 ANTENNA_c130_B
*1425 ANTENNA_c131_X
*1426 ANTENNA_c132_A
*1427 ANTENNA_c132_B
*1428 ANTENNA_c132_X
*1429 ANTENNA_c133_A
*1430 ANTENNA_c133_B
*1431 ANTENNA_c134_C1
*1432 ANTENNA_c135_A
*1433 ANTENNA_c136_A2
*1434 ANTENNA_c136_D1
*1435 ANTENNA_c137_A
*1436 ANTENNA_c137_B
*1437 ANTENNA_c137_Y
*1438 ANTENNA_c140_B
*1439 ANTENNA_c140_C
*1440 ANTENNA_c141_A_N
*1441 ANTENNA_c141_C
*1442 ANTENNA_c142_A0
*1443 ANTENNA_c142_A3
*1444 ANTENNA_c142_S0
*1445 ANTENNA_c144_B1
*1446 ANTENNA_c145_A3
*1447 ANTENNA_c145_S0
*1448 ANTENNA_c146_A0
*1449 ANTENNA_c146_S0
*1450 ANTENNA_c147_B
*1451 ANTENNA_c147_C_N
*1452 ANTENNA_c147_X
*1453 ANTENNA_c148_Y
*1454 ANTENNA_c149_A
*1455 ANTENNA_c149_B
*1456 ANTENNA_c150_B
*1457 ANTENNA_c150_C
*1458 ANTENNA_c151_X
*1459 ANTENNA_c152_B
*1460 ANTENNA_c152_C_N
*1461 ANTENNA_c153_B
*1462 ANTENNA_c154_A2
*1463 ANTENNA_c154_S0
*1464 ANTENNA_c154_S1
*1465 ANTENNA_c157_B
*1466 ANTENNA_c157_C
*1467 ANTENNA_c159_D1
*1468 ANTENNA_c160_Y
*1469 ANTENNA_c161_A2
*1470 ANTENNA_c161_X
*1471 ANTENNA_c162_A
*1472 ANTENNA_c163_B
*1473 ANTENNA_c163_D_N
*1474 ANTENNA_c165_A2
*1475 ANTENNA_c165_A3
*1476 ANTENNA_c166_S0
*1477 ANTENNA_c167_S0
*1478 ANTENNA_c169_B_N
*1479 ANTENNA_c172_C_N
*1480 ANTENNA_c177_A3
*1481 ANTENNA_c177_S1
*1482 ANTENNA_c178_RESET_B
*1483 ANTENNA_c179_A_N
*1484 ANTENNA_c179_B
*1485 ANTENNA_c179_Y
*1486 ANTENNA_c181_X
*1487 ANTENNA_c182_RESET_B
*1488 ANTENNA_c183_SET_B
*1489 ANTENNA_c184_S1
*1490 ANTENNA_c185_D
*1491 ANTENNA_c185_Q
*1492 ANTENNA_c185_Q_N
*1493 ANTENNA_c186_A1
*1494 ANTENNA_c186_A3
*1495 ANTENNA_c188_A2
*1496 ANTENNA_c190_D
*1497 ANTENNA_c190_SCD
*1498 ANTENNA_c191_C1
*1499 ANTENNA_c191_D1
*1500 ANTENNA_c194_B_N
*1501 ANTENNA_c195_C1
*1502 ANTENNA_c195_Y
*1503 ANTENNA_c196_A_N
*1504 ANTENNA_c198_A2
*1505 ANTENNA_c199_A
*1506 ANTENNA_c199_X
*1507 ANTENNA_c200_D_N
*1508 ANTENNA_c201_D1
*1509 ANTENNA_c202_A3
*1510 ANTENNA_c202_S1
*1511 ANTENNA_c203_D_N
*1512 ANTENNA_c204_C
*1513 ANTENNA_c205_A0
*1514 ANTENNA_c205_S0
*1515 ANTENNA_c205_S1
*1516 ANTENNA_c206_S1
*1517 ANTENNA_c207_C
*1518 ANTENNA_c209_A2
*1519 ANTENNA_c209_S0
*1520 ANTENNA_c210_A1
*1521 ANTENNA_c210_A2
*1522 ANTENNA_c210_S1
*1523 ANTENNA_c210_X
*1524 ANTENNA_c211_B
*1525 ANTENNA_c212_X
*1526 ANTENNA_c213_A
*1527 ANTENNA_c213_B_N
*1528 ANTENNA_c214_B
*1529 ANTENNA_c215_B
*1530 ANTENNA_c217_A1
*1531 ANTENNA_c217_A2
*1532 ANTENNA_c217_C1
*1533 ANTENNA_c217_D1
*1534 ANTENNA_c218_A_N
*1535 ANTENNA_c218_C
*1536 ANTENNA_c219_B
*1537 ANTENNA_c219_C
*1538 ANTENNA_c222_B
*1539 ANTENNA_c223_A
*1540 ANTENNA_c223_C
*1541 ANTENNA_c223_Y
*1542 ANTENNA_c225_A2
*1543 ANTENNA_c225_S0
*1544 ANTENNA_c225_S1
*1545 ANTENNA_c225_X
*1546 ANTENNA_c226_A2
*1547 ANTENNA_c227_A_N
*1548 ANTENNA_c229_C
*1549 ANTENNA_c230_A1
*1550 ANTENNA_c230_A2
*1551 ANTENNA_c230_S1
*1552 ANTENNA_c231_B
*1553 ANTENNA_c232_C_N
*1554 ANTENNA_c233_B
*1555 ANTENNA_c235_D1
*1556 ANTENNA_c240_D
*1557 ANTENNA_c240_RESET_B
*1558 ANTENNA_c241_SCD
*1559 ANTENNA_c243_C1
*1560 ANTENNA_c243_D1
*1561 ANTENNA_c244_S1
*1562 ANTENNA_c245_A1
*1563 ANTENNA_c245_B1
*1564 ANTENNA_c251_B
*1565 ANTENNA_c252_A
*1566 ANTENNA_c252_B_N
*1567 ANTENNA_c253_C_N
*1568 ANTENNA_c253_D_N
*1569 ANTENNA_c255_X
*1570 ANTENNA_c256_B_N
*1571 ANTENNA_c257_A
*1572 ANTENNA_c257_Y
*1573 ANTENNA_c258_B
*1574 ANTENNA_c259_A2
*1575 ANTENNA_c259_D1
*1576 ANTENNA_c260_D_N
*1577 ANTENNA_c260_X
*1578 ANTENNA_c261_S0
*1579 ANTENNA_c261_S1
*1580 ANTENNA_c262_C
*1581 ANTENNA_c263_A1
*1582 ANTENNA_c263_C1
*1583 ANTENNA_c263_D1
*1584 ANTENNA_c264_C1
*1585 ANTENNA_c265_A1
*1586 ANTENNA_c265_A3
*1587 ANTENNA_c266_X
*1588 ANTENNA_c267_A2
*1589 ANTENNA_c268_A
*1590 ANTENNA_c268_C
*1591 ANTENNA_c268_X
*1592 ANTENNA_c269_A3
*1593 ANTENNA_c269_S1
*1594 ANTENNA_c270_X
*1595 ANTENNA_c271_A2
*1596 ANTENNA_c271_A3
*1597 ANTENNA_c271_S1
*1598 ANTENNA_c272_B
*1599 ANTENNA_c273_B_N
*1600 ANTENNA_c275_B
*1601 ANTENNA_c276_Q
*1602 ANTENNA_c276_Q_N
*1603 ANTENNA_c277_B
*1604 ANTENNA_c279_X
*1605 ANTENNA_c280_A_N
*1606 ANTENNA_c282_A2
*1607 ANTENNA_c282_X
*1608 ANTENNA_c283_C_N
*1609 ANTENNA_c284_B
*1610 ANTENNA_c284_C
*1611 ANTENNA_c285_SCE
*1612 ANTENNA_c286_A2
*1613 ANTENNA_c286_A3
*1614 ANTENNA_c288_SCD
*1615 ANTENNA_c288_SET_B
*1616 ANTENNA_c289_B
*1617 ANTENNA_c289_Y
*1618 ANTENNA_c290_A1
*1619 ANTENNA_c290_S0
*1620 ANTENNA_c290_X
*1621 ANTENNA_c291_D1
*1622 ANTENNA_c292_A3
*1623 ANTENNA_c293_S1
*1624 ANTENNA_c294_A_N
*1625 ANTENNA_c294_B
*1626 ANTENNA_c295_C
*1627 ANTENNA_c296_A
*1628 ANTENNA_c297_A
*1629 ANTENNA_c298_S0
*1630 ANTENNA_c298_S1
*1631 ANTENNA_c299_B
*1632 ANTENNA_c300_B
*1633 ANTENNA_c302_B
*1634 ANTENNA_c303_Y
*1635 ANTENNA_c304_B
*1636 ANTENNA_c305_B
*1637 ANTENNA_c306_A_N
*1638 ANTENNA_c306_B
*1639 ANTENNA_c307_C_N
*1640 ANTENNA_c307_Y
*1641 ANTENNA_c308_B
*1642 ANTENNA_c311_A2
*1643 ANTENNA_c311_S0
*1644 ANTENNA_c312_A3
*1645 ANTENNA_c312_S0
*1646 ANTENNA_c312_S1
*1647 ANTENNA_c313_SCE
*1648 ANTENNA_c314_S0
*1649 ANTENNA_c315_SCE
*1650 ANTENNA_c315_SET_B
*1651 ANTENNA_c316_D_N
*1652 ANTENNA_c317_A2
*1653 ANTENNA_c317_B1
*1654 ANTENNA_c317_D1
*1655 ANTENNA_c320_C
*1656 ANTENNA_c321_B
*1657 ANTENNA_c321_X
*1658 ANTENNA_c322_SCE
*1659 ANTENNA_c323_C
*1660 ANTENNA_c325_B
*1661 ANTENNA_c325_C_N
*1662 ANTENNA_c325_D_N
*1663 ANTENNA_c326_C1
*1664 ANTENNA_c326_D1
*1665 ANTENNA_c327_D
*1666 ANTENNA_c327_Q
*1667 ANTENNA_c327_RESET_B
*1668 ANTENNA_c328_S1
*1669 ANTENNA_c329_Q
*1670 ANTENNA_c329_Q_N
*1671 ANTENNA_c329_RESET_B
*1672 ANTENNA_c329_SCD
*1673 ANTENNA_c329_SET_B
*1674 ANTENNA_c330_A0
*1675 ANTENNA_c331_RESET_B
*1676 ANTENNA_c331_SCD
*1677 ANTENNA_c331_SCE
*1678 ANTENNA_c334_A1
*1679 ANTENNA_c335_A3
*1680 ANTENNA_c335_S0
*1681 ANTENNA_c335_S1
*1682 ANTENNA_c336_C
*1683 ANTENNA_c339_A
*1684 ANTENNA_c339_C
*1685 ANTENNA_c339_Y
*1686 ANTENNA_c340_A
*1687 ANTENNA_c340_C_N
*1688 ANTENNA_c342_S0
*1689 ANTENNA_c345_D
*1690 ANTENNA_c345_SCE
*1691 ANTENNA_c345_SET_B
*1692 ANTENNA_c346_B
*1693 ANTENNA_c347_SET_B
*1694 ANTENNA_c348_D
*1695 ANTENNA_c349_RESET_B
*1696 ANTENNA_c351_B
*1697 ANTENNA_c352_D_N
*1698 ANTENNA_c352_X
*1699 ANTENNA_c353_A
*1700 ANTENNA_c354_A0
*1701 ANTENNA_c354_A1
*1702 ANTENNA_c355_Q
*1703 ANTENNA_c356_A1
*1704 ANTENNA_c356_A3
*1705 ANTENNA_c372_A2
*1706 ANTENNA_c373_A0
*1707 ANTENNA_c374_A1
*1708 ANTENNA_c374_S0
*1709 ANTENNA_c375_A0
*1710 ANTENNA_c375_A1
*1711 ANTENNA_c376_A1
*1712 ANTENNA_c377_S0
*1713 ANTENNA_c378_B
*1714 ANTENNA_c380_D
*1715 ANTENNA_c381_Q
*1716 ANTENNA_c382_X
*1717 ANTENNA_c383_B
*1718 ANTENNA_c383_Y
*1719 ANTENNA_c384_A
*1720 ANTENNA_c384_B
*1721 ANTENNA_c384_X
*1722 ANTENNA_c386_A_N
*1723 ANTENNA_c388_X
*1724 ANTENNA_c390_B
*1725 ANTENNA_c390_C
*1726 ANTENNA_c391_C
*1727 ANTENNA_c392_A2
*1728 ANTENNA_c392_C1
*1729 ANTENNA_c392_D1
*1730 ANTENNA_c394_Q
*1731 ANTENNA_c394_Q_N
*1732 ANTENNA_c394_SET_B
*1733 ANTENNA_c396_Q
*1734 ANTENNA_c397_DE
*1735 ANTENNA_c398_Y
*1736 ANTENNA_c399_A
*1737 ANTENNA_c399_B_N
*1738 ANTENNA_c400_A
*1739 ANTENNA_c400_B
*1740 ANTENNA_c400_D_N
*1741 ANTENNA_c401_A_N
*1742 ANTENNA_c401_B
*1743 ANTENNA_c403_B
*1744 ANTENNA_c403_C_N
*1745 ANTENNA_c404_C
*1746 ANTENNA_c404_X
*1747 ANTENNA_c405_A1
*1748 ANTENNA_c406_B
*1749 ANTENNA_c407_D1
*1750 ANTENNA_c408_A1
*1751 ANTENNA_c408_A2
*1752 ANTENNA_c408_S0
*1753 ANTENNA_c408_S1
*1754 ANTENNA_c409_D1
*1755 ANTENNA_c411_DE
*1756 ANTENNA_c412_B
*1757 ANTENNA_c414_A2
*1758 ANTENNA_c414_A3
*1759 ANTENNA_c415_X
*1760 ANTENNA_c416_Q
*1761 ANTENNA_c417_SCD
*1762 ANTENNA_c418_DE
*1763 ANTENNA_c418_Q
*1764 ANTENNA_c419_B
*1765 ANTENNA_c419_X
*1766 ANTENNA_c420_A
*1767 ANTENNA_c420_C
*1768 ANTENNA_c421_DE
*1769 ANTENNA_c421_SCD
*1770 ANTENNA_c421_SCE
*1771 ANTENNA_c422_C
*1772 ANTENNA_c423_DE
*1773 ANTENNA_c423_SCE
*1774 ANTENNA_c424_B
*1775 ANTENNA_c424_C_N
*1776 ANTENNA_c424_D_N
*1777 ANTENNA_c425_A2
*1778 ANTENNA_c425_B1
*1779 ANTENNA_c425_C1
*1780 ANTENNA_c426_C_N
*1781 ANTENNA_c427_C_N
*1782 ANTENNA_c428_A0
*1783 ANTENNA_c428_S0
*1784 ANTENNA_c428_S1
*1785 ANTENNA_c428_X
*1786 ANTENNA_c429_RESET_B
*1787 ANTENNA_c429_SCE
*1788 ANTENNA_c429_SET_B
*1789 ANTENNA_c430_RESET_B
*1790 ANTENNA_c431_RESET_B
*1791 ANTENNA_c432_RESET_B
*1792 ANTENNA_c432_SCE
*1793 ANTENNA_c433_RESET_B
*1794 ANTENNA_c435_A3
*1795 ANTENNA_c435_S0
*1796 ANTENNA_c435_S1
*1797 ANTENNA_c436_SCE
*1798 ANTENNA_c437_C1
*1799 ANTENNA_c437_D1
*1800 ANTENNA_c437_X
*1801 ANTENNA_c438_S0