*SPEF "ieee 1481-1999"
*DESIGN "netlist_0"
*DATE "18:58:59 Tuesday July 23, 2024"
*VENDOR "The OpenROAD Project"
*PROGRAM "OpenROAD"
*VERSION "d423155d69de7f683a23f6916ead418a615ad4ad"
*DESIGN_FLOW "NAME_SCOPE LOCAL" "PIN_CAP NONE"
*DIVIDER /
*DELIMITER :
*BUS_DELIMITER []
*T_UNIT 1 NS
*C_UNIT 1 PF
*R_UNIT 1 OHM
*L_UNIT 1 HENRY

*NAME_MAP
*3 clk
*4 in0
*5 in1
*6 in10
*7 in11
*8 in12
*9 in13
*10 in14
*11 in15
*12 in16
*13 in17
*14 in18
*15 in19
*16 in2
*17 in20
*18 in21
*19 in22
*20 in23
*21 in24
*22 in25
*23 in26
*24 in27
*25 in28
*26 in29
*27 in3
*28 in30
*29 in31
*30 in32
*31 in33
*32 in34
*33 in35
*34 in36
*35 in37
*36 in38
*37 in39
*38 in4
*39 in40
*40 in41
*41 in42
*42 in43
*43 in44
*44 in45
*45 in46
*46 in47
*47 in48
*48 in49
*49 in5
*50 in50
*51 in51
*52 in52
*53 in53
*54 in54
*55 in55
*56 in56
*57 in57
*58 in58
*59 in59
*60 in6
*61 in60
*62 in61
*63 in7
*64 in8
*65 in9
*66 out0
*67 out1
*68 out10
*69 out11
*70 out12
*71 out13
*72 out14
*73 out15
*74 out16
*75 out17
*76 out18
*77 out19
*78 out2
*79 out20
*80 out21
*81 out22
*82 out23
*83 out24
*84 out25
*85 out26
*86 out27
*87 out28
*88 out29
*89 out3
*90 out30
*91 out31
*92 out32
*93 out33
*94 out34
*95 out35
*96 out36
*97 out37
*98 out38
*99 out39
*100 out4
*101 out40
*102 out41
*103 out42
*104 out43
*105 out44
*106 out45
*107 out46
*108 out47
*109 out48
*110 out49
*111 out5
*112 out50
*113 out51
*114 out52
*115 out53
*116 out54
*117 out55
*118 out56
*119 out57
*120 out58
*121 out59
*122 out6
*123 out60
*124 out61
*125 out7
*126 out8
*127 out9
*128 rst
*129 clknet_0_clk
*130 clknet_0_net145
*131 clknet_0_net153
*132 clknet_0_net171
*133 clknet_0_net177
*134 clknet_0_net179
*135 clknet_0_net181
*136 clknet_0_net182
*137 clknet_0_net184
*138 clknet_0_net185
*139 clknet_0_net188
*140 clknet_0_net191
*141 clknet_0_net238
*142 clknet_0_net245
*143 clknet_0_net246
*144 clknet_0_net250
*145 clknet_0_net251
*146 clknet_0_net253
*147 clknet_0_net257
*148 clknet_0_net273
*149 clknet_0_net275
*150 clknet_0_net282
*151 clknet_0_net300
*152 clknet_0_net302
*153 clknet_0_net303
*154 clknet_0_net330
*155 clknet_0_net331
*156 clknet_0_net332
*157 clknet_0_net369
*158 clknet_0_net386
*159 clknet_0_net396
*160 clknet_0_net397
*161 clknet_0_net401
*162 clknet_0_net403
*163 clknet_0_net423
*164 clknet_0_net433
*165 clknet_0_net461
*166 clknet_0_net462
*167 clknet_0_net465
*168 clknet_0_net469
*169 clknet_0_net471
*170 clknet_0_net474
*171 clknet_0_net475
*172 clknet_0_net48
*173 clknet_0_net483
*174 clknet_0_net49
*175 clknet_0_net490
*176 clknet_0_net493
*177 clknet_0_net498
*178 clknet_0_net499
*179 clknet_0_net50
*180 clknet_0_net506
*181 clknet_0_net508
*182 clknet_0_net510
*183 clknet_0_net515
*184 clknet_0_net517
*185 clknet_0_net52
*186 clknet_0_net522
*187 clknet_0_net54
*188 clknet_0_net542
*189 clknet_0_net552
*190 clknet_0_net56
*191 clknet_0_net560
*192 clknet_0_net562
*193 clknet_0_net568
*194 clknet_0_net57
*195 clknet_0_net585
*196 clknet_0_net591
*197 clknet_0_net592
*198 clknet_0_net595
*199 clknet_0_net60
*200 clknet_0_net604
*201 clknet_0_net606
*202 clknet_0_net617
*203 clknet_0_net62
*204 clknet_0_net623
*205 clknet_0_net67
*206 clknet_0_net705
*207 clknet_0_net706
*208 clknet_0_net742
*209 clknet_0_net743
*210 clknet_0_net744
*211 clknet_0_net760
*212 clknet_0_net761
*213 clknet_0_net762
*214 clknet_0_net778
*215 clknet_0_net779
*216 clknet_0_net780
*217 clknet_0_net797
*218 clknet_0_net798
*219 clknet_0_net799
*220 clknet_0_net815
*221 clknet_0_net833
*222 clknet_0_net834
*223 clknet_0_net835
*224 clknet_0_net852
*225 clknet_0_net853
*226 clknet_0_net854
*227 clknet_0_net922
*228 clknet_0_net924
*229 clknet_0_net927
*230 clknet_0_net934
*231 clknet_0_net937
*232 clknet_0_net938
*233 clknet_0_net945
*234 clknet_0_net946
*235 clknet_0_net947
*236 clknet_0_net952
*237 clknet_0_net954
*238 clknet_0_net957
*239 clknet_0_net959
*240 clknet_0_net965
*241 clknet_0_net971
*242 clknet_0_net972
*243 clknet_0_net973
*244 clknet_0_net974
*245 clknet_0_net977
*246 clknet_1_0__leaf_net145
*247 clknet_1_0__leaf_net153
*248 clknet_1_0__leaf_net171
*249 clknet_1_0__leaf_net177
*250 clknet_1_0__leaf_net179
*251 clknet_1_0__leaf_net181
*252 clknet_1_0__leaf_net182
*253 clknet_1_0__leaf_net184
*254 clknet_1_0__leaf_net185
*255 clknet_1_0__leaf_net188
*256 clknet_1_0__leaf_net191
*257 clknet_1_0__leaf_net238
*258 clknet_1_0__leaf_net245
*259 clknet_1_0__leaf_net246
*260 clknet_1_0__leaf_net250
*261 clknet_1_0__leaf_net251
*262 clknet_1_0__leaf_net253
*263 clknet_1_0__leaf_net257
*264 clknet_1_0__leaf_net273
*265 clknet_1_0__leaf_net275
*266 clknet_1_0__leaf_net282
*267 clknet_1_0__leaf_net300
*268 clknet_1_0__leaf_net302
*269 clknet_1_0__leaf_net303
*270 clknet_1_0__leaf_net330
*271 clknet_1_0__leaf_net331
*272 clknet_1_0__leaf_net332
*273 clknet_1_0__leaf_net369
*274 clknet_1_0__leaf_net386
*275 clknet_1_0__leaf_net396
*276 clknet_1_0__leaf_net397
*277 clknet_1_0__leaf_net401
*278 clknet_1_0__leaf_net403
*279 clknet_1_0__leaf_net423
*280 clknet_1_0__leaf_net433
*281 clknet_1_0__leaf_net461
*282 clknet_1_0__leaf_net462
*283 clknet_1_0__leaf_net465
*284 clknet_1_0__leaf_net469
*285 clknet_1_0__leaf_net471
*286 clknet_1_0__leaf_net474
*287 clknet_1_0__leaf_net475
*288 clknet_1_0__leaf_net48
*289 clknet_1_0__leaf_net483
*290 clknet_1_0__leaf_net49
*291 clknet_1_0__leaf_net490
*292 clknet_1_0__leaf_net493
*293 clknet_1_0__leaf_net498
*294 clknet_1_0__leaf_net499
*295 clknet_1_0__leaf_net50
*296 clknet_1_0__leaf_net506
*297 clknet_1_0__leaf_net508
*298 clknet_1_0__leaf_net510
*299 clknet_1_0__leaf_net515
*300 clknet_1_0__leaf_net517
*301 clknet_1_0__leaf_net52
*302 clknet_1_0__leaf_net522
*303 clknet_1_0__leaf_net54
*304 clknet_1_0__leaf_net542
*305 clknet_1_0__leaf_net552
*306 clknet_1_0__leaf_net56
*307 clknet_1_0__leaf_net560
*308 clknet_1_0__leaf_net562
*309 clknet_1_0__leaf_net568
*310 clknet_1_0__leaf_net57
*311 clknet_1_0__leaf_net585
*312 clknet_1_0__leaf_net591
*313 clknet_1_0__leaf_net592
*314 clknet_1_0__leaf_net595
*315 clknet_1_0__leaf_net60
*316 clknet_1_0__leaf_net604
*317 clknet_1_0__leaf_net606
*318 clknet_1_0__leaf_net617
*319 clknet_1_0__leaf_net62
*320 clknet_1_0__leaf_net623
*321 clknet_1_0__leaf_net67
*322 clknet_1_0__leaf_net705
*323 clknet_1_0__leaf_net706
*324 clknet_1_0__leaf_net742
*325 clknet_1_0__leaf_net743
*326 clknet_1_0__leaf_net744
*327 clknet_1_0__leaf_net760
*328 clknet_1_0__leaf_net761
*329 clknet_1_0__leaf_net762
*330 clknet_1_0__leaf_net778
*331 clknet_1_0__leaf_net779
*332 clknet_1_0__leaf_net780
*333 clknet_1_0__leaf_net797
*334 clknet_1_0__leaf_net798
*335 clknet_1_0__leaf_net799
*336 clknet_1_0__leaf_net815
*337 clknet_1_0__leaf_net833
*338 clknet_1_0__leaf_net834
*339 clknet_1_0__leaf_net835
*340 clknet_1_0__leaf_net852
*341 clknet_1_0__leaf_net853
*342 clknet_1_0__leaf_net854
*343 clknet_1_0__leaf_net922
*344 clknet_1_0__leaf_net924
*345 clknet_1_0__leaf_net927
*346 clknet_1_0__leaf_net934
*347 clknet_1_0__leaf_net937
*348 clknet_1_0__leaf_net938
*349 clknet_1_0__leaf_net945
*350 clknet_1_0__leaf_net946
*351 clknet_1_0__leaf_net947
*352 clknet_1_0__leaf_net952
*353 clknet_1_0__leaf_net954
*354 clknet_1_0__leaf_net957
*355 clknet_1_0__leaf_net959
*356 clknet_1_0__leaf_net965
*357 clknet_1_0__leaf_net971
*358 clknet_1_0__leaf_net972
*359 clknet_1_0__leaf_net973
*360 clknet_1_0__leaf_net974
*361 clknet_1_0__leaf_net977
*362 clknet_1_1__leaf_net145
*363 clknet_1_1__leaf_net153
*364 clknet_1_1__leaf_net171
*365 clknet_1_1__leaf_net177
*366 clknet_1_1__leaf_net179
*367 clknet_1_1__leaf_net181
*368 clknet_1_1__leaf_net182
*369 clknet_1_1__leaf_net184
*370 clknet_1_1__leaf_net185
*371 clknet_1_1__leaf_net188
*372 clknet_1_1__leaf_net191
*373 clknet_1_1__leaf_net238
*374 clknet_1_1__leaf_net245
*375 clknet_1_1__leaf_net246
*376 clknet_1_1__leaf_net250
*377 clknet_1_1__leaf_net251
*378 clknet_1_1__leaf_net253
*379 clknet_1_1__leaf_net257
*380 clknet_1_1__leaf_net273
*381 clknet_1_1__leaf_net275
*382 clknet_1_1__leaf_net282
*383 clknet_1_1__leaf_net300
*384 clknet_1_1__leaf_net302
*385 clknet_1_1__leaf_net303
*386 clknet_1_1__leaf_net330
*387 clknet_1_1__leaf_net331
*388 clknet_1_1__leaf_net332
*389 clknet_1_1__leaf_net369
*390 clknet_1_1__leaf_net386
*391 clknet_1_1__leaf_net396
*392 clknet_1_1__leaf_net397
*393 clknet_1_1__leaf_net401
*394 clknet_1_1__leaf_net403
*395 clknet_1_1__leaf_net423
*396 clknet_1_1__leaf_net433
*397 clknet_1_1__leaf_net461
*398 clknet_1_1__leaf_net462
*399 clknet_1_1__leaf_net465
*400 clknet_1_1__leaf_net469
*401 clknet_1_1__leaf_net471
*402 clknet_1_1__leaf_net474
*403 clknet_1_1__leaf_net475
*404 clknet_1_1__leaf_net48
*405 clknet_1_1__leaf_net483
*406 clknet_1_1__leaf_net49
*407 clknet_1_1__leaf_net490
*408 clknet_1_1__leaf_net493
*409 clknet_1_1__leaf_net498
*410 clknet_1_1__leaf_net499
*411 clknet_1_1__leaf_net50
*412 clknet_1_1__leaf_net506
*413 clknet_1_1__leaf_net508
*414 clknet_1_1__leaf_net510
*415 clknet_1_1__leaf_net515
*416 clknet_1_1__leaf_net517
*417 clknet_1_1__leaf_net52
*418 clknet_1_1__leaf_net522
*419 clknet_1_1__leaf_net54
*420 clknet_1_1__leaf_net542
*421 clknet_1_1__leaf_net552
*422 clknet_1_1__leaf_net56
*423 clknet_1_1__leaf_net560
*424 clknet_1_1__leaf_net562
*425 clknet_1_1__leaf_net568
*426 clknet_1_1__leaf_net57
*427 clknet_1_1__leaf_net585
*428 clknet_1_1__leaf_net591
*429 clknet_1_1__leaf_net592
*430 clknet_1_1__leaf_net595
*431 clknet_1_1__leaf_net60
*432 clknet_1_1__leaf_net604
*433 clknet_1_1__leaf_net606
*434 clknet_1_1__leaf_net617
*435 clknet_1_1__leaf_net62
*436 clknet_1_1__leaf_net623
*437 clknet_1_1__leaf_net67
*438 clknet_1_1__leaf_net705
*439 clknet_1_1__leaf_net706
*440 clknet_1_1__leaf_net742
*441 clknet_1_1__leaf_net743
*442 clknet_1_1__leaf_net744
*443 clknet_1_1__leaf_net760
*444 clknet_1_1__leaf_net761
*445 clknet_1_1__leaf_net762
*446 clknet_1_1__leaf_net778
*447 clknet_1_1__leaf_net779
*448 clknet_1_1__leaf_net780
*449 clknet_1_1__leaf_net797
*450 clknet_1_1__leaf_net798
*451 clknet_1_1__leaf_net799
*452 clknet_1_1__leaf_net815
*453 clknet_1_1__leaf_net833
*454 clknet_1_1__leaf_net834
*455 clknet_1_1__leaf_net835
*456 clknet_1_1__leaf_net852
*457 clknet_1_1__leaf_net853
*458 clknet_1_1__leaf_net854
*459 clknet_1_1__leaf_net922
*460 clknet_1_1__leaf_net924
*461 clknet_1_1__leaf_net927
*462 clknet_1_1__leaf_net934
*463 clknet_1_1__leaf_net937
*464 clknet_1_1__leaf_net938
*465 clknet_1_1__leaf_net945
*466 clknet_1_1__leaf_net946
*467 clknet_1_1__leaf_net947
*468 clknet_1_1__leaf_net952
*469 clknet_1_1__leaf_net954
*470 clknet_1_1__leaf_net957
*471 clknet_1_1__leaf_net959
*472 clknet_1_1__leaf_net965
*473 clknet_1_1__leaf_net971
*474 clknet_1_1__leaf_net972
*475 clknet_1_1__leaf_net973
*476 clknet_1_1__leaf_net974
*477 clknet_1_1__leaf_net977
*478 clknet_4_0_0_clk
*479 clknet_4_10_0_clk
*480 clknet_4_11_0_clk
*481 clknet_4_12_0_clk
*482 clknet_4_13_0_clk
*483 clknet_4_14_0_clk
*484 clknet_4_15_0_clk
*485 clknet_4_1_0_clk
*486 clknet_4_2_0_clk
*487 clknet_4_3_0_clk
*488 clknet_4_4_0_clk
*489 clknet_4_5_0_clk
*490 clknet_4_6_0_clk
*491 clknet_4_7_0_clk
*492 clknet_4_8_0_clk
*493 clknet_4_9_0_clk
*494 net0
*495 net1
*496 net10
*497 net100
*498 net1000
*499 net1001
*500 net1002
*501 net1003
*502 net1004
*503 net1005
*504 net1006
*505 net1007
*506 net1008
*507 net1009
*508 net101
*509 net1010
*510 net1011
*511 net1012
*512 net1013
*513 net1014
*514 net1015
*515 net1016
*516 net1017
*517 net1018
*518 net1019
*519 net102
*520 net1020
*521 net1021
*522 net1022
*523 net1023
*524 net1024
*525 net1025
*526 net1026
*527 net1027
*528 net1028
*529 net1029
*530 net103
*531 net1030
*532 net1031
*533 net1032
*534 net1033
*535 net1034
*536 net1035
*537 net1036
*538 net1037
*539 net1038
*540 net1039
*541 net104
*542 net1040
*543 net1041
*544 net1042
*545 net1043
*546 net1044
*547 net1045
*548 net1046
*549 net1047
*550 net1048
*551 net1049
*552 net105
*553 net1050
*554 net1051
*555 net1052
*556 net1053
*557 net1054
*558 net1055
*559 net1056
*560 net1057
*561 net1058
*562 net1059
*563 net106
*564 net1060
*565 net1061
*566 net1062
*567 net1063
*568 net1064
*569 net1065
*570 net1066
*571 net1067
*572 net1068
*573 net1069
*574 net107
*575 net1070
*576 net1071
*577 net1072
*578 net1073
*579 net1074
*580 net1075
*581 net1076
*582 net1077
*583 net1078
*584 net1079
*585 net108
*586 net1080
*587 net1081
*588 net1082
*589 net1083
*590 net1084
*591 net1085
*592 net1086
*593 net1087
*594 net1088
*595 net1089
*596 net109
*597 net1090
*598 net1091
*599 net1092
*600 net1093
*601 net1094
*602 net1095
*603 net1096
*604 net1097
*605 net1098
*606 net1099
*607 net11
*608 net110
*609 net1100
*610 net1101
*611 net1102
*612 net1103
*613 net1104
*614 net1105
*615 net1106
*616 net1107
*617 net1108
*618 net1109
*619 net111
*620 net1110
*621 net1111
*622 net1112
*623 net1113
*624 net1114
*625 net1115
*626 net1116
*627 net1117
*628 net1118
*629 net1119
*630 net112
*631 net1120
*632 net1121
*633 net1122
*634 net1123
*635 net1124
*636 net1125
*637 net1126
*638 net1127
*639 net1128
*640 net1129
*641 net113
*642 net1130
*643 net1131
*644 net1132
*645 net1133
*646 net1134
*647 net1135
*648 net1136
*649 net1137
*650 net1138
*651 net1139
*652 net114
*653 net1140
*654 net1141
*655 net1142
*656 net1143
*657 net1144
*658 net1145
*659 net1146
*660 net1147
*661 net1148
*662 net1149
*663 net115
*664 net1150
*665 net1151
*666 net1152
*667 net1153
*668 net1154
*669 net1155
*670 net1156
*671 net1157
*672 net1158
*673 net1159
*674 net116
*675 net1160
*676 net117
*677 net118
*678 net119
*679 net12
*680 net120
*681 net121
*682 net122
*683 net123
*684 net124
*685 net125
*686 net126
*687 net127
*688 net128
*689 net129
*690 net13
*691 net130
*692 net131
*693 net132
*694 net133
*695 net134
*696 net135
*697 net136
*698 net137
*699 net138
*700 net139
*701 net14
*702 net140
*703 net141
*704 net142
*705 net143
*706 net144
*707 net145
*708 net146
*709 net147
*710 net148
*711 net149
*712 net15
*713 net150
*714 net151
*715 net152
*716 net153
*717 net154
*718 net155
*719 net156
*720 net157
*721 net158
*722 net159
*723 net16
*724 net160
*725 net161
*726 net162
*727 net163
*728 net164
*729 net165
*730 net166
*731 net167
*732 net168
*733 net169
*734 net17
*735 net170
*736 net171
*737 net172
*738 net173
*739 net174
*740 net175
*741 net176
*742 net177
*743 net178
*744 net179
*745 net18
*746 net180
*747 net181
*748 net182
*749 net183
*750 net184
*751 net185
*752 net186
*753 net187
*754 net188
*755 net189
*756 net19
*757 net190
*758 net191
*759 net192
*760 net193
*761 net194
*762 net195
*763 net196
*764 net197
*765 net198
*766 net199
*767 net2
*768 net20
*769 net200
*770 net201
*771 net202
*772 net203
*773 net204
*774 net205
*775 net206
*776 net207
*777 net208
*778 net209
*779 net21
*780 net210
*781 net211
*782 net212
*783 net213
*784 net214
*785 net215
*786 net216
*787 net217
*788 net218
*789 net219
*790 net22
*791 net220
*792 net221
*793 net222
*794 net223
*795 net224
*796 net225
*797 net226
*798 net227
*799 net228
*800 net229
*801 net23
*802 net230
*803 net231
*804 net232
*805 net233
*806 net234
*807 net235
*808 net236
*809 net237
*810 net238
*811 net239
*812 net24
*813 net240
*814 net241
*815 net242
*816 net243
*817 net244
*818 net245
*819 net246
*820 net247
*821 net248
*822 net249
*823 net25
*824 net250
*825 net251
*826 net252
*827 net253
*828 net254
*829 net255
*830 net256
*831 net257
*832 net258
*833 net259
*834 net26
*835 net260
*836 net261
*837 net262
*838 net263
*839 net264
*840 net265
*841 net266
*842 net267
*843 net268
*844 net269
*845 net27
*846 net270
*847 net271
*848 net272
*849 net273
*850 net274
*851 net275
*852 net276
*853 net277
*854 net278
*855 net279
*856 net28
*857 net280
*858 net281
*859 net282
*860 net283
*861 net284
*862 net285
*863 net286
*864 net287
*865 net288
*866 net289
*867 net29
*868 net290
*869 net291
*870 net292
*871 net293
*872 net294
*873 net295
*874 net296
*875 net297
*876 net298
*877 net299
*878 net3
*879 net30
*880 net300
*881 net301
*882 net302
*883 net303
*884 net304
*885 net305
*886 net306
*887 net307
*888 net308
*889 net309
*890 net31
*891 net310
*892 net311
*893 net312
*894 net313
*895 net314
*896 net315
*897 net316
*898 net317
*899 net318
*900 net319
*901 net32
*902 net320
*903 net321
*904 net322
*905 net323
*906 net324
*907 net325
*908 net326
*909 net327
*910 net328
*911 net329
*912 net33
*913 net330
*914 net331
*915 net332
*916 net333
*917 net334
*918 net335
*919 net336
*920 net337
*921 net338
*922 net339
*923 net34
*924 net340
*925 net341
*926 net342
*927 net343
*928 net344
*929 net345
*930 net346
*931 net347
*932 net348
*933 net349
*934 net35
*935 net350
*936 net351
*937 net352
*938 net353
*939 net354
*940 net355
*941 net356
*942 net357
*943 net358
*944 net359
*945 net36
*946 net360
*947 net361
*948 net362
*949 net363
*950 net364
*951 net365
*952 net366
*953 net367
*954 net368
*955 net369
*956 net37
*957 net370
*958 net371
*959 net372
*960 net373
*961 net374
*962 net375
*963 net376
*964 net377
*965 net378
*966 net379
*967 net38
*968 net380
*969 net381
*970 net382
*971 net383
*972 net384
*973 net385
*974 net386
*975 net387
*976 net388
*977 net389
*978 net39
*979 net390
*980 net391
*981 net392
*982 net393
*983 net394
*984 net395
*985 net396
*986 net397
*987 net398
*988 net399
*989 net4
*990 net40
*991 net400
*992 net401
*993 net402
*994 net403
*995 net404
*996 net405
*997 net406
*998 net407
*999 net408
*1000 net409
*1001 net41
*1002 net410
*1003 net411
*1004 net412
*1005 net413
*1006 net414
*1007 net415
*1008 net416
*1009 net417
*1010 net418
*1011 net419
*1012 net42
*1013 net420
*1014 net421
*1015 net422
*1016 net423
*1017 net424
*1018 net425
*1019 net426
*1020 net427
*1021 net428
*1022 net429
*1023 net43
*1024 net430
*1025 net431
*1026 net432
*1027 net433
*1028 net434
*1029 net435
*1030 net436
*1031 net437
*1032 net438
*1033 net439
*1034 net44
*1035 net440
*1036 net441
*1037 net442
*1038 net443
*1039 net444
*1040 net445
*1041 net446
*1042 net447
*1043 net448
*1044 net449
*1045 net45
*1046 net450
*1047 net451
*1048 net452
*1049 net453
*1050 net454
*1051 net455
*1052 net456
*1053 net457
*1054 net458
*1055 net459
*1056 net46
*1057 net460
*1058 net461
*1059 net462
*1060 net463
*1061 net464
*1062 net465
*1063 net466
*1064 net467
*1065 net468
*1066 net469
*1067 net47
*1068 net470
*1069 net471
*1070 net472
*1071 net473
*1072 net474
*1073 net475
*1074 net476
*1075 net477
*1076 net478
*1077 net479
*1078 net48
*1079 net480
*1080 net481
*1081 net482
*1082 net483
*1083 net484
*1084 net485
*1085 net486
*1086 net487
*1087 net488
*1088 net489
*1089 net49
*1090 net490
*1091 net491
*1092 net492
*1093 net493
*1094 net494
*1095 net495
*1096 net496
*1097 net497
*1098 net498
*1099 net499
*1100 net5
*1101 net50
*1102 net500
*1103 net501
*1104 net502
*1105 net503
*1106 net504
*1107 net505
*1108 net506
*1109 net507
*1110 net508
*1111 net509
*1112 net51
*1113 net510
*1114 net511
*1115 net512
*1116 net513
*1117 net514
*1118 net515
*1119 net516
*1120 net517
*1121 net518
*1122 net519
*1123 net52
*1124 net520
*1125 net521
*1126 net522
*1127 net523
*1128 net524
*1129 net525
*1130 net526
*1131 net527
*1132 net528
*1133 net529
*1134 net53
*1135 net530
*1136 net531
*1137 net532
*1138 net533
*1139 net534
*1140 net535
*1141 net536
*1142 net537
*1143 net538
*1144 net539
*1145 net54
*1146 net540
*1147 net541
*1148 net542
*1149 net543
*1150 net544
*1151 net545
*1152 net546
*1153 net547
*1154 net548
*1155 net549
*1156 net55
*1157 net550
*1158 net551
*1159 net552
*1160 net553
*1161 net554
*1162 net555
*1163 net556
*1164 net557
*1165 net558
*1166 net559
*1167 net56
*1168 net560
*1169 net561
*1170 net562
*1171 net563
*1172 net564
*1173 net565
*1174 net566
*1175 net567
*1176 net568
*1177 net569
*1178 net57
*1179 net570
*1180 net571
*1181 net572
*1182 net573
*1183 net574
*1184 net575
*1185 net576
*1186 net577
*1187 net578
*1188 net579
*1189 net58
*1190 net580
*1191 net581
*1192 net582
*1193 net583
*1194 net584
*1195 net585
*1196 net586
*1197 net587
*1198 net588
*1199 net589
*1200 net59
*1201 net590
*1202 net591
*1203 net592
*1204 net593
*1205 net594
*1206 net595
*1207 net596
*1208 net597
*1209 net598
*1210 net599
*1211 net6
*1212 net60
*1213 net600
*1214 net601
*1215 net602
*1216 net603
*1217 net604
*1218 net605
*1219 net606
*1220 net607
*1221 net608
*1222 net609
*1223 net61
*1224 net610
*1225 net611
*1226 net612
*1227 net613
*1228 net614
*1229 net615
*1230 net616
*1231 net617
*1232 net618
*1233 net619
*1234 net62
*1235 net620
*1236 net621
*1237 net622
*1238 net623
*1239 net624
*1240 net625
*1241 net626
*1242 net627
*1243 net628
*1244 net629
*1245 net63
*1246 net630
*1247 net631
*1248 net632
*1249 net633
*1250 net634
*1251 net635
*1252 net636
*1253 net637
*1254 net638
*1255 net639
*1256 net64
*1257 net640
*1258 net641
*1259 net642
*1260 net643
*1261 net644
*1262 net645
*1263 net646
*1264 net647
*1265 net648
*1266 net649
*1267 net65
*1268 net650
*1269 net651
*1270 net652
*1271 net653
*1272 net654
*1273 net655
*1274 net656
*1275 net657
*1276 net658
*1277 net659
*1278 net66
*1279 net660
*1280 net661
*1281 net662
*1282 net663
*1283 net664
*1284 net665
*1285 net666
*1286 net667
*1287 net668
*1288 net669
*1289 net67
*1290 net670
*1291 net671
*1292 net672
*1293 net673
*1294 net674
*1295 net675
*1296 net676
*1297 net677
*1298 net678
*1299 net679
*1300 net68
*1301 net680
*1302 net681
*1303 net682
*1304 net683
*1305 net684
*1306 net685
*1307 net686
*1308 net687
*1309 net688
*1310 net689
*1311 net69
*1312 net690
*1313 net691
*1314 net692
*1315 net693
*1316 net694
*1317 net695
*1318 net696
*1319 net697
*1320 net698
*1321 net699
*1322 net7
*1323 net70
*1324 net700
*1325 net701
*1326 net702
*1327 net703
*1328 net704
*1329 net705
*1330 net706
*1331 net707
*1332 net708
*1333 net709
*1334 net71
*1335 net710
*1336 net711
*1337 net712
*1338 net713
*1339 net714
*1340 net715
*1341 net716
*1342 net717
*1343 net718
*1344 net719
*1345 net72
*1346 net720
*1347 net721
*1348 net722
*1349 net723
*1350 net724
*1351 net725
*1352 net726
*1353 net727
*1354 net728
*1355 net729
*1356 net73
*1357 net730
*1358 net731
*1359 net732
*1360 net733
*1361 net734
*1362 net735
*1363 net736
*1364 net737
*1365 net738
*1366 net739
*1367 net74
*1368 net740
*1369 net741
*1370 net742
*1371 net743
*1372 net744
*1373 net745
*1374 net746
*1375 net747
*1376 net748
*1377 net749
*1378 net75
*1379 net750
*1380 net751
*1381 net752
*1382 net753
*1383 net754
*1384 net755
*1385 net756
*1386 net757
*1387 net758
*1388 net759
*1389 net76
*1390 net760
*1391 net761
*1392 net762
*1393 net763
*1394 net764
*1395 net765
*1396 net766
*1397 net767
*1398 net768
*1399 net769
*1400 net77
*1401 net770
*1402 net771
*1403 net772
*1404 net773
*1405 net774
*1406 net775
*1407 net776
*1408 net777
*1409 net778
*1410 net779
*1411 net78
*1412 net780
*1413 net781
*1414 net782
*1415 net783
*1416 net784
*1417 net785
*1418 net786
*1419 net787
*1420 net788
*1421 net789
*1422 net79
*1423 net790
*1424 net791
*1425 net792
*1426 net793
*1427 net794
*1428 net795
*1429 net796
*1430 net797
*1431 net798
*1432 net799
*1433 net8
*1434 net80
*1435 net800
*1436 net801
*1437 net802
*1438 net803
*1439 net804
*1440 net805
*1441 net806
*1442 net807
*1443 net808
*1444 net809
*1445 net81
*1446 net810
*1447 net811
*1448 net812
*1449 net813
*1450 net814
*1451 net815
*1452 net816
*1453 net817
*1454 net818
*1455 net819
*1456 net82
*1457 net820
*1458 net821
*1459 net822
*1460 net823
*1461 net824
*1462 net825
*1463 net826
*1464 net827
*1465 net828
*1466 net829
*1467 net83
*1468 net830
*1469 net831
*1470 net832
*1471 net833
*1472 net834
*1473 net835
*1474 net836
*1475 net837
*1476 net838
*1477 net839
*1478 net84
*1479 net840
*1480 net841
*1481 net842
*1482 net843
*1483 net844
*1484 net845
*1485 net846
*1486 net847
*1487 net848
*1488 net849
*1489 net85
*1490 net850
*1491 net851
*1492 net852
*1493 net853
*1494 net854
*1495 net855
*1496 net856
*1497 net857
*1498 net858
*1499 net859
*1500 net86
*1501 net860
*1502 net861
*1503 net862
*1504 net863
*1505 net864
*1506 net865
*1507 net866
*1508 net867
*1509 net868
*1510 net869
*1511 net87
*1512 net870
*1513 net871
*1514 net872
*1515 net873
*1516 net874
*1517 net875
*1518 net876
*1519 net877
*1520 net878
*1521 net879
*1522 net88
*1523 net880
*1524 net881
*1525 net882
*1526 net883
*1527 net884
*1528 net885
*1529 net886
*1530 net887
*1531 net888
*1532 net889
*1533 net89
*1534 net890
*1535 net891
*1536 net892
*1537 net893
*1538 net894
*1539 net895
*1540 net896
*1541 net897
*1542 net898
*1543 net899
*1544 net9
*1545 net90
*1546 net900
*1547 net901
*1548 net902
*1549 net903
*1550 net904
*1551 net905
*1552 net906
*1553 net907
*1554 net908
*1555 net909
*1556 net91
*1557 net910
*1558 net911
*1559 net912
*1560 net913
*1561 net914
*1562 net915
*1563 net916
*1564 net917
*1565 net918
*1566 net919
*1567 net92
*1568 net920
*1569 net921
*1570 net922
*1571 net923
*1572 net924
*1573 net925
*1574 net926
*1575 net927
*1576 net928
*1577 net929
*1578 net93
*1579 net930
*1580 net931
*1581 net932
*1582 net933
*1583 net934
*1584 net935
*1585 net936
*1586 net937
*1587 net938
*1588 net939
*1589 net94
*1590 net940
*1591 net941
*1592 net942
*1593 net943
*1594 net944
*1595 net945
*1596 net946
*1597 net947
*1598 net948
*1599 net949
*1600 net95
*1601 net950
*1602 net951
*1603 net952
*1604 net953
*1605 net954
*1606 net955
*1607 net956
*1608 net957
*1609 net958
*1610 net959
*1611 net96
*1612 net960
*1613 net961
*1614 net962
*1615 net963
*1616 net964
*1617 net965
*1618 net966
*1619 net967
*1620 net968
*1621 net969
*1622 net97
*1623 net970
*1624 net971
*1625 net972
*1626 net973
*1627 net974
*1628 net975
*1629 net976
*1630 net977
*1631 net978
*1632 net979
*1633 net98
*1634 net980
*1635 net981
*1636 net982
*1637 net983
*1638 net984
*1639 net985
*1640 net986
*1641 net987
*1642 net988
*1643 net989
*1644 net99
*1645 net990
*1646 net991
*1647 net992
*1648 net993
*1649 net994
*1650 net995
*1651 net996
*1652 net997
*1653 net998
*1654 net999
*1655 ANTENNA_1
*1656 ANTENNA_c100_D1
*1657 ANTENNA_c101_C
*1658 ANTENNA_c102_CLK_N
*1659 ANTENNA_c102_Q_N
*1660 ANTENNA_c102_SCE
*1661 ANTENNA_c102_SET_B
*1662 ANTENNA_c103_D1
*1663 ANTENNA_c104_C1
*1664 ANTENNA_c105_A1
*1665 ANTENNA_c105_A3
*1666 ANTENNA_c105_S1
*1667 ANTENNA_c106_CLK_N
*1668 ANTENNA_c107_A1
*1669 ANTENNA_c107_B1
*1670 ANTENNA_c107_C1
*1671 ANTENNA_c107_Y
*1672 ANTENNA_c108_A2
*1673 ANTENNA_c108_S0
*1674 ANTENNA_c108_S1
*1675 ANTENNA_c108_X
*1676 ANTENNA_c109_A1
*1677 ANTENNA_c109_A2
*1678 ANTENNA_c109_S0
*1679 ANTENNA_c109_S1
*1680 ANTENNA_c112_C
*1681 ANTENNA_c113_CLK_N
*1682 ANTENNA_c113_Q
*1683 ANTENNA_c113_RESET_B
*1684 ANTENNA_c113_SET_B
*1685 ANTENNA_c114_C
*1686 ANTENNA_c115_A
*1687 ANTENNA_c116_B
*1688 ANTENNA_c117_A1
*1689 ANTENNA_c117_A2
*1690 ANTENNA_c118_A
*1691 ANTENNA_c118_D_N
*1692 ANTENNA_c119_A1
*1693 ANTENNA_c119_A2
*1694 ANTENNA_c119_B1
*1695 ANTENNA_c120_B1
*1696 ANTENNA_c120_D1
*1697 ANTENNA_c121_C
*1698 ANTENNA_c122_B1
*1699 ANTENNA_c123_C_N
*1700 ANTENNA_c125_A2
*1701 ANTENNA_c126_C_N
*1702 ANTENNA_c126_D_N
*1703 ANTENNA_c127_S1
*1704 ANTENNA_c128_D1
*1705 ANTENNA_c129_CLK
*1706 ANTENNA_c131_A1
*1707 ANTENNA_c131_S1
*1708 ANTENNA_c132_A
*1709 ANTENNA_c132_X
*1710 ANTENNA_c133_A
*1711 ANTENNA_c133_B
*1712 ANTENNA_c133_C_N
*1713 ANTENNA_c134_B1
*1714 ANTENNA_c134_C1
*1715 ANTENNA_c134_D1
*1716 ANTENNA_c136_C1
*1717 ANTENNA_c137_A2
*1718 ANTENNA_c138_A
*1719 ANTENNA_c139_A1
*1720 ANTENNA_c139_A2
*1721 ANTENNA_c139_C1
*1722 ANTENNA_c140_C_N
*1723 ANTENNA_c140_X
*1724 ANTENNA_c141_A2
*1725 ANTENNA_c141_A3
*1726 ANTENNA_c142_A1
*1727 ANTENNA_c142_A2
*1728 ANTENNA_c142_X
*1729 ANTENNA_c143_A2
*1730 ANTENNA_c143_B1
*1731 ANTENNA_c144_C1
*1732 ANTENNA_c144_D1
*1733 ANTENNA_c146_B1
*1734 ANTENNA_c146_C1
*1735 ANTENNA_c147_C1
*1736 ANTENNA_c147_Y
*1737 ANTENNA_c148_A1
*1738 ANTENNA_c148_C1
*1739 ANTENNA_c149_A1
*1740 ANTENNA_c149_S0
*1741 ANTENNA_c149_X
*1742 ANTENNA_c150_B1
*1743 ANTENNA_c151_C1
*1744 ANTENNA_c151_D1
*1745 ANTENNA_c152_A0
*1746 ANTENNA_c152_S1
*1747 ANTENNA_c152_X
*1748 ANTENNA_c153_A0
*1749 ANTENNA_c153_A1
*1750 ANTENNA_c153_S0
*1751 ANTENNA_c153_X
*1752 ANTENNA_c154_B1
*1753 ANTENNA_c154_D1
*1754 ANTENNA_c155_B
*1755 ANTENNA_c155_C_N
*1756 ANTENNA_c156_C1
*1757 ANTENNA_c156_Y
*1758 ANTENNA_c157_B
*1759 ANTENNA_c157_C_N
*1760 ANTENNA_c157_D_N
*1761 ANTENNA_c158_A2
*1762 ANTENNA_c158_S1
*1763 ANTENNA_c159_A2
*1764 ANTENNA_c159_S0
*1765 ANTENNA_c159_S1
*1766 ANTENNA_c159_X
*1767 ANTENNA_c160_A2
*1768 ANTENNA_c160_B1
*1769 ANTENNA_c160_C1
*1770 ANTENNA_c160_D1
*1771 ANTENNA_c161_B
*1772 ANTENNA_c161_C_N
*1773 ANTENNA_c161_D_N
*1774 ANTENNA_c161_X
*1775 ANTENNA_c162_A
*1776 ANTENNA_c162_B
*1777 ANTENNA_c162_C_N
*1778 ANTENNA_c162_X
*1779 ANTENNA_c163_A1
*1780 ANTENNA_c163_A2
*1781 ANTENNA_c163_C1
*1782 ANTENNA_c163_D1
*1783 ANTENNA_c164_B1
*1784 ANTENNA_c164_D1
*1785 ANTENNA_c165_C
*1786 ANTENNA_c166_A1
*1787 ANTENNA_c166_A2
*1788 ANTENNA_c166_A3
*1789 ANTENNA_c167_A3
*1790 ANTENNA_c168_C1
*1791 ANTENNA_c168_Y
*1792 ANTENNA_c169_A2
*1793 ANTENNA_c169_A3
*1794 ANTENNA_c169_S0
*1795 ANTENNA_c170_X
*1796 ANTENNA_c171_A1
*1797 ANTENNA_c171_A2
*1798 ANTENNA_c171_B1
*1799 ANTENNA_c172_A3
*1800 ANTENNA_c173_S1
*1801 ANTENNA_c174_A0
*1802 ANTENNA_c174_A1
*1803 ANTENNA_c174_A2
*1804 ANTENNA_c174_S0
*1805 ANTENNA_c174_S1
*1806 ANTENNA_c175_S0
*1807 ANTENNA_c176_C
*1808 ANTENNA_c176_X
*1809 ANTENNA_c177_A
*1810 ANTENNA_c177_B
*1811 ANTENNA_c177_C_N
*1812 ANTENNA_c177_D_N
*1813 ANTENNA_c177_X
*1814 ANTENNA_c178_A
*1815 ANTENNA_c178_C_N
*1816 ANTENNA_c178_D_N
*1817 ANTENNA_c179_A1
*1818 ANTENNA_c179_B1
*1819 ANTENNA_c179_C1
*1820 ANTENNA_c179_D1
*1821 ANTENNA_c179_X
*1822 ANTENNA_c180_A0
*1823 ANTENNA_c180_A1
*1824 ANTENNA_c180_A2
*1825 ANTENNA_c180_S0
*1826 ANTENNA_c180_S1
*1827 ANTENNA_c181_A1
*1828 ANTENNA_c181_A2
*1829 ANTENNA_c181_A3
*1830 ANTENNA_c181_S0
*1831 ANTENNA_c181_S1
*1832 ANTENNA_c182_B
*1833 ANTENNA_c182_C_N
*1834 ANTENNA_c183_A0
*1835 ANTENNA_c183_A1
*1836 ANTENNA_c183_A2
*1837 ANTENNA_c183_A3
*1838 ANTENNA_c183_S0
*1839 ANTENNA_c183_S1
*1840 ANTENNA_c183_X
*1841 ANTENNA_c184_A0
*1842 ANTENNA_c184_A3
*1843 ANTENNA_c184_S1
*1844 ANTENNA_c185_A0
*1845 ANTENNA_c185_A1
*1846 ANTENNA_c185_A2
*1847 ANTENNA_c185_A3
*1848 ANTENNA_c185_S1
*1849 ANTENNA_c186_A1
*1850 ANTENNA_c186_A2