*SPEF "ieee 1481-1999"
*DESIGN "netlist_1"
*DATE "23:16:26 Saturday July 20, 2024"
*VENDOR "The OpenROAD Project"
*PROGRAM "OpenROAD"
*VERSION "d423155d69de7f683a23f6916ead418a615ad4ad"
*DESIGN_FLOW "NAME_SCOPE LOCAL" "PIN_CAP NONE"
*DIVIDER /
*DELIMITER :
*BUS_DELIMITER []
*T_UNIT 1 NS
*C_UNIT 1 PF
*R_UNIT 1 OHM
*L_UNIT 1 HENRY

*NAME_MAP
*3 clk
*4 in0
*5 in1
*6 in10
*7 in11
*8 in12
*9 in13
*10 in14
*11 in15
*12 in16
*13 in17
*14 in18
*15 in19
*16 in2
*17 in20
*18 in21
*19 in22
*20 in23
*21 in24
*22 in25
*23 in26
*24 in27
*25 in28
*26 in29
*27 in3
*28 in30
*29 in31
*30 in32
*31 in33
*32 in34
*33 in35
*34 in36
*35 in37
*36 in38
*37 in39
*38 in4
*39 in40
*40 in41
*41 in42
*42 in43
*43 in44
*44 in45
*45 in46
*46 in47
*47 in48
*48 in49
*49 in5
*50 in50
*51 in51
*52 in52
*53 in53
*54 in54
*55 in55
*56 in56
*57 in57
*58 in58
*59 in59
*60 in6
*61 in60
*62 in61
*63 in7
*64 in8
*65 in9
*66 out0
*67 out1
*68 out10
*69 out11
*70 out12
*71 out13
*72 out14
*73 out15
*74 out16
*75 out17
*76 out18
*77 out19
*78 out2
*79 out20
*80 out21
*81 out22
*82 out23
*83 out24
*84 out25
*85 out26
*86 out27
*87 out28
*88 out29
*89 out3
*90 out30
*91 out31
*92 out32
*93 out33
*94 out34
*95 out35
*96 out36
*97 out37
*98 out38
*99 out39
*100 out4
*101 out40
*102 out41
*103 out42
*104 out43
*105 out44
*106 out45
*107 out46
*108 out47
*109 out48
*110 out49
*111 out5
*112 out50
*113 out51
*114 out52
*115 out53
*116 out54
*117 out55
*118 out56
*119 out57
*120 out58
*121 out59
*122 out6
*123 out60
*124 out61
*125 out7
*126 out8
*127 out9
*128 rst
*129 clknet_0_clk
*130 clknet_0_net135
*131 clknet_0_net136
*132 clknet_0_net140
*133 clknet_0_net142
*134 clknet_0_net143
*135 clknet_0_net145
*136 clknet_0_net146
*137 clknet_0_net148
*138 clknet_0_net152
*139 clknet_0_net153
*140 clknet_0_net156
*141 clknet_0_net160
*142 clknet_0_net161
*143 clknet_0_net169
*144 clknet_0_net179
*145 clknet_0_net182
*146 clknet_0_net254
*147 clknet_0_net276
*148 clknet_0_net286
*149 clknet_0_net289
*150 clknet_0_net290
*151 clknet_0_net291
*152 clknet_0_net292
*153 clknet_0_net302
*154 clknet_0_net306
*155 clknet_0_net363
*156 clknet_0_net365
*157 clknet_0_net366
*158 clknet_0_net371
*159 clknet_0_net372
*160 clknet_0_net373
*161 clknet_0_net379
*162 clknet_0_net382
*163 clknet_0_net387
*164 clknet_0_net389
*165 clknet_0_net394
*166 clknet_0_net395
*167 clknet_0_net399
*168 clknet_0_net406
*169 clknet_0_net407
*170 clknet_0_net414
*171 clknet_0_net423
*172 clknet_0_net425
*173 clknet_0_net438
*174 clknet_0_net439
*175 clknet_0_net440
*176 clknet_0_net442
*177 clknet_0_net445
*178 clknet_0_net447
*179 clknet_0_net452
*180 clknet_0_net460
*181 clknet_0_net472
*182 clknet_0_net477
*183 clknet_0_net478
*184 clknet_0_net516
*185 clknet_0_net517
*186 clknet_0_net527
*187 clknet_0_net552
*188 clknet_0_net563
*189 clknet_0_net564
*190 clknet_0_net570
*191 clknet_0_net575
*192 clknet_0_net584
*193 clknet_0_net595
*194 clknet_0_net598
*195 clknet_0_net599
*196 clknet_0_net638
*197 clknet_0_net643
*198 clknet_0_net747
*199 clknet_0_net748
*200 clknet_0_net776
*201 clknet_0_net777
*202 clknet_0_net794
*203 clknet_0_net795
*204 clknet_0_net812
*205 clknet_0_net813
*206 clknet_0_net814
*207 clknet_0_net894
*208 clknet_0_net899
*209 clknet_0_net901
*210 clknet_0_net904
*211 clknet_0_net905
*212 clknet_0_net910
*213 clknet_0_net917
*214 clknet_0_net920
*215 clknet_0_net921
*216 clknet_0_net924
*217 clknet_0_net933
*218 clknet_0_net937
*219 clknet_0_net939
*220 clknet_0_net940
*221 clknet_1_0__leaf_net135
*222 clknet_1_0__leaf_net136
*223 clknet_1_0__leaf_net140
*224 clknet_1_0__leaf_net142
*225 clknet_1_0__leaf_net143
*226 clknet_1_0__leaf_net145
*227 clknet_1_0__leaf_net146
*228 clknet_1_0__leaf_net148
*229 clknet_1_0__leaf_net152
*230 clknet_1_0__leaf_net153
*231 clknet_1_0__leaf_net156
*232 clknet_1_0__leaf_net160
*233 clknet_1_0__leaf_net161
*234 clknet_1_0__leaf_net169
*235 clknet_1_0__leaf_net179
*236 clknet_1_0__leaf_net182
*237 clknet_1_0__leaf_net254
*238 clknet_1_0__leaf_net276
*239 clknet_1_0__leaf_net286
*240 clknet_1_0__leaf_net289
*241 clknet_1_0__leaf_net290
*242 clknet_1_0__leaf_net291
*243 clknet_1_0__leaf_net292
*244 clknet_1_0__leaf_net302
*245 clknet_1_0__leaf_net306
*246 clknet_1_0__leaf_net363
*247 clknet_1_0__leaf_net365
*248 clknet_1_0__leaf_net366
*249 clknet_1_0__leaf_net371
*250 clknet_1_0__leaf_net372
*251 clknet_1_0__leaf_net373
*252 clknet_1_0__leaf_net379
*253 clknet_1_0__leaf_net382
*254 clknet_1_0__leaf_net387
*255 clknet_1_0__leaf_net389
*256 clknet_1_0__leaf_net394
*257 clknet_1_0__leaf_net395
*258 clknet_1_0__leaf_net399
*259 clknet_1_0__leaf_net406
*260 clknet_1_0__leaf_net407
*261 clknet_1_0__leaf_net414
*262 clknet_1_0__leaf_net423
*263 clknet_1_0__leaf_net425
*264 clknet_1_0__leaf_net438
*265 clknet_1_0__leaf_net439
*266 clknet_1_0__leaf_net440
*267 clknet_1_0__leaf_net442
*268 clknet_1_0__leaf_net445
*269 clknet_1_0__leaf_net447
*270 clknet_1_0__leaf_net452
*271 clknet_1_0__leaf_net460
*272 clknet_1_0__leaf_net472
*273 clknet_1_0__leaf_net477
*274 clknet_1_0__leaf_net478
*275 clknet_1_0__leaf_net516
*276 clknet_1_0__leaf_net517
*277 clknet_1_0__leaf_net527
*278 clknet_1_0__leaf_net552
*279 clknet_1_0__leaf_net563
*280 clknet_1_0__leaf_net564
*281 clknet_1_0__leaf_net570
*282 clknet_1_0__leaf_net575
*283 clknet_1_0__leaf_net584
*284 clknet_1_0__leaf_net595
*285 clknet_1_0__leaf_net598
*286 clknet_1_0__leaf_net599
*287 clknet_1_0__leaf_net638
*288 clknet_1_0__leaf_net643
*289 clknet_1_0__leaf_net747
*290 clknet_1_0__leaf_net748
*291 clknet_1_0__leaf_net776
*292 clknet_1_0__leaf_net777
*293 clknet_1_0__leaf_net794
*294 clknet_1_0__leaf_net795
*295 clknet_1_0__leaf_net812
*296 clknet_1_0__leaf_net813
*297 clknet_1_0__leaf_net814
*298 clknet_1_0__leaf_net894
*299 clknet_1_0__leaf_net899
*300 clknet_1_0__leaf_net901
*301 clknet_1_0__leaf_net904
*302 clknet_1_0__leaf_net905
*303 clknet_1_0__leaf_net910
*304 clknet_1_0__leaf_net917
*305 clknet_1_0__leaf_net920
*306 clknet_1_0__leaf_net921
*307 clknet_1_0__leaf_net924
*308 clknet_1_0__leaf_net933
*309 clknet_1_0__leaf_net937
*310 clknet_1_0__leaf_net939
*311 clknet_1_0__leaf_net940
*312 clknet_1_1__leaf_net135
*313 clknet_1_1__leaf_net136
*314 clknet_1_1__leaf_net140
*315 clknet_1_1__leaf_net142
*316 clknet_1_1__leaf_net143
*317 clknet_1_1__leaf_net145
*318 clknet_1_1__leaf_net146
*319 clknet_1_1__leaf_net148
*320 clknet_1_1__leaf_net152
*321 clknet_1_1__leaf_net153
*322 clknet_1_1__leaf_net156
*323 clknet_1_1__leaf_net160
*324 clknet_1_1__leaf_net161
*325 clknet_1_1__leaf_net169
*326 clknet_1_1__leaf_net179
*327 clknet_1_1__leaf_net182
*328 clknet_1_1__leaf_net254
*329 clknet_1_1__leaf_net276
*330 clknet_1_1__leaf_net286
*331 clknet_1_1__leaf_net289
*332 clknet_1_1__leaf_net290
*333 clknet_1_1__leaf_net291
*334 clknet_1_1__leaf_net292
*335 clknet_1_1__leaf_net302
*336 clknet_1_1__leaf_net306
*337 clknet_1_1__leaf_net363
*338 clknet_1_1__leaf_net365
*339 clknet_1_1__leaf_net366
*340 clknet_1_1__leaf_net371
*341 clknet_1_1__leaf_net372
*342 clknet_1_1__leaf_net373
*343 clknet_1_1__leaf_net379
*344 clknet_1_1__leaf_net382
*345 clknet_1_1__leaf_net387
*346 clknet_1_1__leaf_net389
*347 clknet_1_1__leaf_net394
*348 clknet_1_1__leaf_net395
*349 clknet_1_1__leaf_net399
*350 clknet_1_1__leaf_net406
*351 clknet_1_1__leaf_net407
*352 clknet_1_1__leaf_net414
*353 clknet_1_1__leaf_net423
*354 clknet_1_1__leaf_net425
*355 clknet_1_1__leaf_net438
*356 clknet_1_1__leaf_net439
*357 clknet_1_1__leaf_net440
*358 clknet_1_1__leaf_net442
*359 clknet_1_1__leaf_net445
*360 clknet_1_1__leaf_net447
*361 clknet_1_1__leaf_net452
*362 clknet_1_1__leaf_net460
*363 clknet_1_1__leaf_net472
*364 clknet_1_1__leaf_net477
*365 clknet_1_1__leaf_net478
*366 clknet_1_1__leaf_net516
*367 clknet_1_1__leaf_net517
*368 clknet_1_1__leaf_net527
*369 clknet_1_1__leaf_net552
*370 clknet_1_1__leaf_net563
*371 clknet_1_1__leaf_net564
*372 clknet_1_1__leaf_net570
*373 clknet_1_1__leaf_net575
*374 clknet_1_1__leaf_net584
*375 clknet_1_1__leaf_net595
*376 clknet_1_1__leaf_net598
*377 clknet_1_1__leaf_net599
*378 clknet_1_1__leaf_net638
*379 clknet_1_1__leaf_net643
*380 clknet_1_1__leaf_net747
*381 clknet_1_1__leaf_net748
*382 clknet_1_1__leaf_net776
*383 clknet_1_1__leaf_net777
*384 clknet_1_1__leaf_net794
*385 clknet_1_1__leaf_net795
*386 clknet_1_1__leaf_net812
*387 clknet_1_1__leaf_net813
*388 clknet_1_1__leaf_net814
*389 clknet_1_1__leaf_net894
*390 clknet_1_1__leaf_net899
*391 clknet_1_1__leaf_net901
*392 clknet_1_1__leaf_net904
*393 clknet_1_1__leaf_net905
*394 clknet_1_1__leaf_net910
*395 clknet_1_1__leaf_net917
*396 clknet_1_1__leaf_net920
*397 clknet_1_1__leaf_net921
*398 clknet_1_1__leaf_net924
*399 clknet_1_1__leaf_net933
*400 clknet_1_1__leaf_net937
*401 clknet_1_1__leaf_net939
*402 clknet_1_1__leaf_net940
*403 clknet_4_0_0_clk
*404 clknet_4_10_0_clk
*405 clknet_4_11_0_clk
*406 clknet_4_12_0_clk
*407 clknet_4_13_0_clk
*408 clknet_4_14_0_clk
*409 clknet_4_15_0_clk
*410 clknet_4_1_0_clk
*411 clknet_4_2_0_clk
*412 clknet_4_3_0_clk
*413 clknet_4_4_0_clk
*414 clknet_4_5_0_clk
*415 clknet_4_6_0_clk
*416 clknet_4_7_0_clk
*417 clknet_4_8_0_clk
*418 clknet_4_9_0_clk
*419 net0
*420 net1
*421 net10
*422 net100
*423 net1000
*424 net1001
*425 net1002
*426 net1003
*427 net1004
*428 net1005
*429 net1006
*430 net1007
*431 net1008
*432 net1009
*433 net101
*434 net1010
*435 net1011
*436 net1012
*437 net1013
*438 net1014
*439 net1015
*440 net1016
*441 net1017
*442 net1018
*443 net1019
*444 net102
*445 net1020
*446 net1021
*447 net1022
*448 net1023
*449 net1024
*450 net1025
*451 net1026
*452 net1027
*453 net1028
*454 net1029
*455 net103
*456 net1030
*457 net1031
*458 net1032
*459 net104
*460 net105
*461 net106
*462 net107
*463 net108
*464 net109
*465 net11
*466 net110
*467 net111
*468 net112
*469 net113
*470 net114
*471 net115
*472 net116
*473 net117
*474 net118
*475 net119
*476 net12
*477 net120
*478 net121
*479 net122
*480 net123
*481 net124
*482 net125
*483 net126
*484 net127
*485 net128
*486 net129
*487 net13
*488 net130
*489 net131
*490 net132
*491 net133
*492 net134
*493 net135
*494 net136
*495 net137
*496 net138
*497 net139
*498 net14
*499 net140
*500 net141
*501 net142
*502 net143
*503 net144
*504 net145
*505 net146
*506 net147
*507 net148
*508 net149
*509 net15
*510 net150
*511 net151
*512 net152
*513 net153
*514 net154
*515 net155
*516 net156
*517 net157
*518 net158
*519 net159
*520 net16
*521 net160
*522 net161
*523 net162
*524 net163
*525 net164
*526 net165
*527 net166
*528 net167
*529 net168
*530 net169
*531 net17
*532 net170
*533 net171
*534 net172
*535 net173
*536 net174
*537 net175
*538 net176
*539 net177
*540 net178
*541 net179
*542 net18
*543 net180
*544 net181
*545 net182
*546 net183
*547 net184
*548 net185
*549 net186
*550 net187
*551 net188
*552 net189
*553 net19
*554 net190
*555 net191
*556 net192
*557 net193
*558 net194
*559 net195
*560 net196
*561 net197
*562 net198
*563 net199
*564 net2
*565 net20
*566 net200
*567 net201
*568 net202
*569 net203
*570 net204
*571 net205
*572 net206
*573 net207
*574 net208
*575 net209
*576 net21
*577 net210
*578 net211
*579 net212
*580 net213
*581 net214
*582 net215
*583 net216
*584 net217
*585 net218
*586 net219
*587 net22
*588 net220
*589 net221
*590 net222
*591 net223
*592 net224
*593 net225
*594 net226
*595 net227
*596 net228
*597 net229
*598 net23
*599 net230
*600 net231
*601 net232
*602 net233
*603 net234
*604 net235
*605 net236
*606 net237
*607 net238
*608 net239
*609 net24
*610 net240
*611 net241
*612 net242
*613 net243
*614 net244
*615 net245
*616 net246
*617 net247
*618 net248
*619 net249
*620 net25
*621 net250
*622 net251
*623 net252
*624 net253
*625 net254
*626 net255
*627 net256
*628 net257
*629 net258
*630 net259
*631 net26
*632 net260
*633 net261
*634 net262
*635 net263
*636 net264
*637 net265
*638 net266
*639 net267
*640 net268
*641 net269
*642 net27
*643 net270
*644 net271
*645 net272
*646 net273
*647 net274
*648 net275
*649 net276
*650 net277
*651 net278
*652 net279
*653 net28
*654 net280
*655 net281
*656 net282
*657 net283
*658 net284
*659 net285
*660 net286
*661 net287
*662 net288
*663 net289
*664 net29
*665 net290
*666 net291
*667 net292
*668 net293
*669 net294
*670 net295
*671 net296
*672 net297
*673 net298
*674 net299
*675 net3
*676 net30
*677 net300
*678 net301
*679 net302
*680 net303
*681 net304
*682 net305
*683 net306
*684 net307
*685 net308
*686 net309
*687 net31
*688 net310
*689 net311
*690 net312
*691 net313
*692 net314
*693 net315
*694 net316
*695 net317
*696 net318
*697 net319
*698 net32
*699 net320
*700 net321
*701 net322
*702 net323
*703 net324
*704 net325
*705 net326
*706 net327
*707 net328
*708 net329
*709 net33
*710 net330
*711 net331
*712 net332
*713 net333
*714 net334
*715 net335
*716 net336
*717 net337
*718 net338
*719 net339
*720 net34
*721 net340
*722 net341
*723 net342
*724 net343
*725 net344
*726 net345
*727 net346
*728 net347
*729 net348
*730 net349
*731 net35
*732 net350
*733 net351
*734 net352
*735 net353
*736 net354
*737 net355
*738 net356
*739 net357
*740 net358
*741 net359
*742 net36
*743 net360
*744 net361
*745 net362
*746 net363
*747 net364
*748 net365
*749 net366
*750 net367
*751 net368
*752 net369
*753 net37
*754 net370
*755 net371
*756 net372
*757 net373
*758 net374
*759 net375
*760 net376
*761 net377
*762 net378
*763 net379
*764 net38
*765 net380
*766 net381
*767 net382
*768 net383
*769 net384
*770 net385
*771 net386
*772 net387
*773 net388
*774 net389
*775 net39
*776 net390
*777 net391
*778 net392
*779 net393
*780 net394
*781 net395
*782 net396
*783 net397
*784 net398
*785 net399
*786 net4
*787 net40
*788 net400
*789 net401
*790 net402
*791 net403
*792 net404
*793 net405
*794 net406
*795 net407
*796 net408
*797 net409
*798 net41
*799 net410
*800 net411
*801 net412
*802 net413
*803 net414
*804 net415
*805 net416
*806 net417
*807 net418
*808 net419
*809 net42
*810 net420
*811 net421
*812 net422
*813 net423
*814 net424
*815 net425
*816 net426
*817 net427
*818 net428
*819 net429
*820 net43
*821 net430
*822 net431
*823 net432
*824 net433
*825 net434
*826 net435
*827 net436
*828 net437
*829 net438
*830 net439
*831 net44
*832 net440
*833 net441
*834 net442
*835 net443
*836 net444
*837 net445
*838 net446
*839 net447
*840 net448
*841 net449
*842 net45
*843 net450
*844 net451
*845 net452
*846 net453
*847 net454
*848 net455
*849 net456
*850 net457
*851 net458
*852 net459
*853 net46
*854 net460
*855 net461
*856 net462
*857 net463
*858 net464
*859 net465
*860 net466
*861 net467
*862 net468
*863 net469
*864 net47
*865 net470
*866 net471
*867 net472
*868 net473
*869 net474
*870 net475
*871 net476
*872 net477
*873 net478
*874 net479
*875 net48
*876 net480
*877 net481
*878 net482
*879 net483
*880 net484
*881 net485
*882 net486
*883 net487
*884 net488
*885 net489
*886 net49
*887 net490
*888 net491
*889 net492
*890 net493
*891 net494
*892 net495
*893 net496
*894 net497
*895 net498
*896 net499
*897 net5
*898 net50
*899 net500
*900 net501
*901 net502
*902 net503
*903 net504
*904 net505
*905 net506
*906 net507
*907 net508
*908 net509
*909 net51
*910 net510
*911 net511
*912 net512
*913 net513
*914 net514
*915 net515
*916 net516
*917 net517
*918 net518
*919 net519
*920 net52
*921 net520
*922 net521
*923 net522
*924 net523
*925 net524
*926 net525
*927 net526
*928 net527
*929 net528
*930 net529
*931 net53
*932 net530
*933 net531
*934 net532
*935 net533
*936 net534
*937 net535
*938 net536
*939 net537
*940 net538
*941 net539
*942 net54
*943 net540
*944 net541
*945 net542
*946 net543
*947 net544
*948 net545
*949 net546
*950 net547
*951 net548
*952 net549
*953 net55
*954 net550
*955 net551
*956 net552
*957 net553
*958 net554
*959 net555
*960 net556
*961 net557
*962 net558
*963 net559
*964 net56
*965 net560
*966 net561
*967 net562
*968 net563
*969 net564
*970 net565
*971 net566
*972 net567
*973 net568
*974 net569
*975 net57
*976 net570
*977 net571
*978 net572
*979 net573
*980 net574
*981 net575
*982 net576
*983 net577
*984 net578
*985 net579
*986 net58
*987 net580
*988 net581
*989 net582
*990 net583
*991 net584
*992 net585
*993 net586
*994 net587
*995 net588
*996 net589
*997 net59
*998 net590
*999 net591
*1000 net592
*1001 net593
*1002 net594
*1003 net595
*1004 net596
*1005 net597
*1006 net598
*1007 net599
*1008 net6
*1009 net60
*1010 net600
*1011 net601
*1012 net602
*1013 net603
*1014 net604
*1015 net605
*1016 net606
*1017 net607
*1018 net608
*1019 net609
*1020 net61
*1021 net610
*1022 net611
*1023 net612
*1024 net613
*1025 net614
*1026 net615
*1027 net616
*1028 net617
*1029 net618
*1030 net619
*1031 net62
*1032 net620
*1033 net621
*1034 net622
*1035 net623
*1036 net624
*1037 net625
*1038 net626
*1039 net627
*1040 net628
*1041 net629
*1042 net63
*1043 net630
*1044 net631
*1045 net632
*1046 net633
*1047 net634
*1048 net635
*1049 net636
*1050 net637
*1051 net638
*1052 net639
*1053 net64
*1054 net640
*1055 net641
*1056 net642
*1057 net643
*1058 net644
*1059 net645
*1060 net646
*1061 net647
*1062 net648
*1063 net649
*1064 net65
*1065 net650
*1066 net651
*1067 net652
*1068 net653
*1069 net654
*1070 net655
*1071 net656
*1072 net657
*1073 net658
*1074 net659
*1075 net66
*1076 net660
*1077 net661
*1078 net662
*1079 net663
*1080 net664
*1081 net665
*1082 net666
*1083 net667
*1084 net668
*1085 net669
*1086 net67
*1087 net670
*1088 net671
*1089 net672
*1090 net673
*1091 net674
*1092 net675
*1093 net676
*1094 net677
*1095 net678
*1096 net679
*1097 net68
*1098 net680
*1099 net681
*1100 net682
*1101 net683
*1102 net684
*1103 net685
*1104 net686
*1105 net687
*1106 net688
*1107 net689
*1108 net69
*1109 net690
*1110 net691
*1111 net692
*1112 net693
*1113 net694
*1114 net695
*1115 net696
*1116 net697
*1117 net698
*1118 net699
*1119 net7
*1120 net70
*1121 net700
*1122 net701
*1123 net702
*1124 net703
*1125 net704
*1126 net705
*1127 net706
*1128 net707
*1129 net708
*1130 net709
*1131 net71
*1132 net710
*1133 net711
*1134 net712
*1135 net713
*1136 net714
*1137 net715
*1138 net716
*1139 net717
*1140 net718
*1141 net719
*1142 net72
*1143 net720
*1144 net721
*1145 net722
*1146 net723
*1147 net724
*1148 net725
*1149 net726
*1150 net727
*1151 net728
*1152 net729
*1153 net73
*1154 net730
*1155 net731
*1156 net732
*1157 net733
*1158 net734
*1159 net735
*1160 net736
*1161 net737
*1162 net738
*1163 net739
*1164 net74
*1165 net740
*1166 net741
*1167 net742
*1168 net743
*1169 net744
*1170 net745
*1171 net746
*1172 net747
*1173 net748
*1174 net749
*1175 net75
*1176 net750
*1177 net751
*1178 net752
*1179 net753
*1180 net754
*1181 net755
*1182 net756
*1183 net757
*1184 net758
*1185 net759
*1186 net76
*1187 net760
*1188 net761
*1189 net762
*1190 net763
*1191 net764
*1192 net765
*1193 net766
*1194 net767
*1195 net768
*1196 net769
*1197 net77
*1198 net770
*1199 net771
*1200 net772
*1201 net773
*1202 net774
*1203 net775
*1204 net776
*1205 net777
*1206 net778
*1207 net779
*1208 net78
*1209 net780
*1210 net781
*1211 net782
*1212 net783
*1213 net784
*1214 net785
*1215 net786
*1216 net787
*1217 net788
*1218 net789
*1219 net79
*1220 net790
*1221 net791
*1222 net792
*1223 net793
*1224 net794
*1225 net795
*1226 net796
*1227 net797
*1228 net798
*1229 net799
*1230 net8
*1231 net80
*1232 net800
*1233 net801
*1234 net802
*1235 net803
*1236 net804
*1237 net805
*1238 net806
*1239 net807
*1240 net808
*1241 net809
*1242 net81
*1243 net810
*1244 net811
*1245 net812
*1246 net813
*1247 net814
*1248 net815
*1249 net816
*1250 net817
*1251 net818
*1252 net819
*1253 net82
*1254 net820
*1255 net821
*1256 net822
*1257 net823
*1258 net824
*1259 net825
*1260 net826
*1261 net827
*1262 net828
*1263 net829
*1264 net83
*1265 net830
*1266 net831
*1267 net832
*1268 net833
*1269 net834
*1270 net835
*1271 net836
*1272 net837
*1273 net838
*1274 net839
*1275 net84
*1276 net840
*1277 net841
*1278 net842
*1279 net843
*1280 net844
*1281 net845
*1282 net846
*1283 net847
*1284 net848
*1285 net849
*1286 net85
*1287 net850
*1288 net851
*1289 net852
*1290 net853
*1291 net854
*1292 net855
*1293 net856
*1294 net857
*1295 net858
*1296 net859
*1297 net86
*1298 net860
*1299 net861
*1300 net862
*1301 net863
*1302 net864
*1303 net865
*1304 net866
*1305 net867
*1306 net868
*1307 net869
*1308 net87
*1309 net870
*1310 net871
*1311 net872
*1312 net873
*1313 net874
*1314 net875
*1315 net876
*1316 net877
*1317 net878
*1318 net879
*1319 net88
*1320 net880
*1321 net881
*1322 net882
*1323 net883
*1324 net884
*1325 net885
*1326 net886
*1327 net887
*1328 net888
*1329 net889
*1330 net89
*1331 net890
*1332 net891
*1333 net892
*1334 net893
*1335 net894
*1336 net895
*1337 net896
*1338 net897
*1339 net898
*1340 net899
*1341 net9
*1342 net90
*1343 net900
*1344 net901
*1345 net902
*1346 net903
*1347 net904
*1348 net905
*1349 net906
*1350 net907
*1351 net908
*1352 net909
*1353 net91
*1354 net910
*1355 net911
*1356 net912
*1357 net913
*1358 net914
*1359 net915
*1360 net916
*1361 net917
*1362 net918
*1363 net919
*1364 net92
*1365 net920
*1366 net921
*1367 net922
*1368 net923
*1369 net924
*1370 net925
*1371 net926
*1372 net927
*1373 net928
*1374 net929
*1375 net93
*1376 net930
*1377 net931
*1378 net932
*1379 net933
*1380 net934
*1381 net935
*1382 net936
*1383 net937
*1384 net938
*1385 net939
*1386 net94
*1387 net940
*1388 net941
*1389 net942
*1390 net943
*1391 net944
*1392 net945
*1393 net946
*1394 net947
*1395 net948
*1396 net949
*1397 net95
*1398 net950
*1399 net951
*1400 net952
*1401 net953
*1402 net954
*1403 net955
*1404 net956
*1405 net957
*1406 net958
*1407 net959
*1408 net96
*1409 net960
*1410 net961
*1411 net962
*1412 net963
*1413 net964
*1414 net965
*1415 net966
*1416 net967
*1417 net968
*1418 net969
*1419 net97
*1420 net970
*1421 net971
*1422 net972
*1423 net973
*1424 net974
*1425 net975
*1426 net976
*1427 net977
*1428 net978
*1429 net979
*1430 net98
*1431 net980
*1432 net981
*1433 net982
*1434 net983
*1435 net984
*1436 net985
*1437 net986
*1438 net987
*1439 net988
*1440 net989
*1441 net99
*1442 net990
*1443 net991
*1444 net992
*1445 net993
*1446 net994
*1447 net995
*1448 net996
*1449 net997
*1450 net998
*1451 net999
*1452 ANTENNA_1
*1453 ANTENNA_2
*1454 ANTENNA_c100_B
*1455 ANTENNA_c101_B
*1456 ANTENNA_c101_Y
*1457 ANTENNA_c102_A
*1458 ANTENNA_c103_D1
*1459 ANTENNA_c103_Y
*1460 ANTENNA_c105_B1
*1461 ANTENNA_c107_A2
*1462 ANTENNA_c107_B1
*1463 ANTENNA_c107_X
*1464 ANTENNA_c108_B
*1465 ANTENNA_c109_B
*1466 ANTENNA_c109_Y
*1467 ANTENNA_c111_B
*1468 ANTENNA_c111_X
*1469 ANTENNA_c115_X
*1470 ANTENNA_c116_A
*1471 ANTENNA_c116_X
*1472 ANTENNA_c118_B
*1473 ANTENNA_c121_B
*1474 ANTENNA_c121_D_N
*1475 ANTENNA_c123_B
*1476 ANTENNA_c123_X
*1477 ANTENNA_c124_A2
*1478 ANTENNA_c124_D1
*1479 ANTENNA_c125_A1
*1480 ANTENNA_c125_S0
*1481 ANTENNA_c125_S1
*1482 ANTENNA_c126_D_N
*1483 ANTENNA_c127_B
*1484 ANTENNA_c127_X
*1485 ANTENNA_c128_A2
*1486 ANTENNA_c128_A3
*1487 ANTENNA_c128_S1
*1488 ANTENNA_c129_B
*1489 ANTENNA_c130_A3
*1490 ANTENNA_c131_A3
*1491 ANTENNA_c131_S0
*1492 ANTENNA_c132_B
*1493 ANTENNA_c134_Y
*1494 ANTENNA_c136_B
*1495 ANTENNA_c137_B
*1496 ANTENNA_c137_Y
*1497 ANTENNA_c138_X
*1498 ANTENNA_c140_A
*1499 ANTENNA_c140_B
*1500 ANTENNA_c141_B
*1501 ANTENNA_c141_X
*1502 ANTENNA_c142_A3
*1503 ANTENNA_c142_S0
*1504 ANTENNA_c143_A
*1505 ANTENNA_c144_B
*1506 ANTENNA_c144_C
*1507 ANTENNA_c144_X
*1508 ANTENNA_c146_A_N
*1509 ANTENNA_c148_C_N
*1510 ANTENNA_c148_X
*1511 ANTENNA_c149_A3
*1512 ANTENNA_c149_X
*1513 ANTENNA_c150_A
*1514 ANTENNA_c150_B
*1515 ANTENNA_c151_Y
*1516 ANTENNA_c152_A1
*1517 ANTENNA_c152_A2
*1518 ANTENNA_c152_S1
*1519 ANTENNA_c152_X
*1520 ANTENNA_c153_A
*1521 ANTENNA_c153_B
*1522 ANTENNA_c153_C_N
*1523 ANTENNA_c153_Y
*1524 ANTENNA_c154_A
*1525 ANTENNA_c154_C_N
*1526 ANTENNA_c155_B
*1527 ANTENNA_c155_C
*1528 ANTENNA_c155_Y
*1529 ANTENNA_c157_B
*1530 ANTENNA_c157_C_N
*1531 ANTENNA_c158_B
*1532 ANTENNA_c158_C_N
*1533 ANTENNA_c159_B
*1534 ANTENNA_c160_A
*1535 ANTENNA_c160_C_N
*1536 ANTENNA_c160_Y
*1537 ANTENNA_c161_B
*1538 ANTENNA_c162_A
*1539 ANTENNA_c162_B
*1540 ANTENNA_c163_B_N
*1541 ANTENNA_c163_X
*1542 ANTENNA_c164_B_N
*1543 ANTENNA_c165_C1
*1544 ANTENNA_c165_X
*1545 ANTENNA_c166_A_N
*1546 ANTENNA_c166_B
*1547 ANTENNA_c166_C
*1548 ANTENNA_c167_B
*1549 ANTENNA_c167_Y
*1550 ANTENNA_c168_B
*1551 ANTENNA_c169_B
*1552 ANTENNA_c169_C_N
*1553 ANTENNA_c169_D_N
*1554 ANTENNA_c171_X
*1555 ANTENNA_c172_A2
*1556 ANTENNA_c172_S1
*1557 ANTENNA_c173_A1
*1558 ANTENNA_c173_A2
*1559 ANTENNA_c173_S0
*1560 ANTENNA_c173_S1
*1561 ANTENNA_c173_X
*1562 ANTENNA_c174_A0
*1563 ANTENNA_c174_A2
*1564 ANTENNA_c174_A3
*1565 ANTENNA_c174_S0
*1566 ANTENNA_c175_A2
*1567 ANTENNA_c175_A3
*1568 ANTENNA_c176_C_N
*1569 ANTENNA_c176_Y
*1570 ANTENNA_c177_B
*1571 ANTENNA_c177_C
*1572 ANTENNA_c178_D_N
*1573 ANTENNA_c179_C_N
*1574 ANTENNA_c179_D_N
*1575 ANTENNA_c180_A
*1576 ANTENNA_c180_C
*1577 ANTENNA_c181_A
*1578 ANTENNA_c181_C
*1579 ANTENNA_c182_B
*1580 ANTENNA_c183_A
*1581 ANTENNA_c183_B
*1582 ANTENNA_c184_C
*1583 ANTENNA_c185_D_N
*1584 ANTENNA_c186_A
*1585 ANTENNA_c186_B
*1586 ANTENNA_c187_C_N
*1587 ANTENNA_c187_D_N
*1588 ANTENNA_c189_A2
*1589 ANTENNA_c189_S0
*1590 ANTENNA_c190_C_N
*1591 ANTENNA_c191_A1
*1592 ANTENNA_c191_B1
*1593 ANTENNA_c191_C1
*1594 ANTENNA_c191_X
*1595 ANTENNA_c193_CLK
*1596 ANTENNA_c193_Q
*1597 ANTENNA_c193_Q_N
*1598 ANTENNA_c193_SCD
*1599 ANTENNA_c193_SCE
*1600 ANTENNA_c194_A1
*1601 ANTENNA_c194_A2
*1602 ANTENNA_c194_A3
*1603 ANTENNA_c195_A2
*1604 ANTENNA_c195_S0
*1605 ANTENNA_c196_A1
*1606 ANTENNA_c196_A2
*1607 ANTENNA_c196_A3
*1608 ANTENNA_c197_A1
*1609 ANTENNA_c197_A2
*1610 ANTENNA_c197_A3
*1611 ANTENNA_c198_C
*1612 ANTENNA_c198_Y
*1613 ANTENNA_c199_B
*1614 ANTENNA_c201_13_A
*1615 ANTENNA_c201_14_A
*1616 ANTENNA_c201_15_A
*1617 ANTENNA_c201_16_A
*1618 ANTENNA_c201_17_A
*1619 ANTENNA_c201_18_A
*1620 ANTENNA_c201_19_A
*1621 ANTENNA_c201_20_A
*1622 ANTENNA_c202_B
*1623 ANTENNA_c202_C_N
*1624 ANTENNA_c206_B1
*1625 ANTENNA_c206_D1
*1626 ANTENNA_c207_A1
*1627 ANTENNA_c207_A2
*1628 ANTENNA_c207_B1
*1629 ANTENNA_c207_C1
*1630 ANTENNA_c207_D1
*1631 ANTENNA_c208_X
*1632 ANTENNA_c209_B
*1633 ANTENNA_c210_A1
*1634 ANTENNA_c210_S0
*1635 ANTENNA_c211_A2
*1636 ANTENNA_c211_B1
*1637 ANTENNA_c211_C1
*1638 ANTENNA_c212_B
*1639 ANTENNA_c213_X
*1640 ANTENNA_c215_A0
*1641 ANTENNA_c215_S1
*1642 ANTENNA_c216_A2
*1643 ANTENNA_c216_S0
*1644 ANTENNA_c217_A3
*1645 ANTENNA_c217_S0
*1646 ANTENNA_c219_B1
*1647 ANTENNA_c219_C1
*1648 ANTENNA_c219_D1
*1649 ANTENNA_c220_B
*1650 ANTENNA_c222_A
*1651 ANTENNA_c222_B_N
*1652 ANTENNA_c222_X
*1653 ANTENNA_c223_B_N
*1654 ANTENNA_c224_A2
*1655 ANTENNA_c224_C1
*1656 ANTENNA_c224_D1
*1657 ANTENNA_c226_A
*1658 ANTENNA_c226_B
*1659 ANTENNA_c227_C_N
*1660 ANTENNA_c228_B
*1661 ANTENNA_c229_B
*1662 ANTENNA_c230_CLK
*1663 ANTENNA_c230_Q
*1664 ANTENNA_c230_SCE
*1665 ANTENNA_c231_A
*1666 ANTENNA_c232_S0
*1667 ANTENNA_c232_S1
*1668 ANTENNA_c233_A1
*1669 ANTENNA_c233_A2
*1670 ANTENNA_c233_B1
*1671 ANTENNA_c234_A
*1672 ANTENNA_c234_Y
*1673 ANTENNA_c235_Q
*1674 ANTENNA_c235_SCD
*1675 ANTENNA_c236_A
*1676 ANTENNA_c237_CLK
*1677 ANTENNA_c237_SCD
*1678 ANTENNA_c238_B
*1679 ANTENNA_c239_A2
*1680 ANTENNA_c239_S0
*1681 ANTENNA_c239_S1
*1682 ANTENNA_c240_A1
*1683 ANTENNA_c240_D1
*1684 ANTENNA_c241_A2
*1685 ANTENNA_c241_C1
*1686 ANTENNA_c241_D1
*1687 ANTENNA_c242_B
*1688 ANTENNA_c242_C
*1689 ANTENNA_c243_A1
*1690 ANTENNA_c243_S0
*1691 ANTENNA_c243_S1
*1692 ANTENNA_c245_A
*1693 ANTENNA_c245_B
*1694 ANTENNA_c246_B
*1695 ANTENNA_c248_A2
*1696 ANTENNA_c248_B1
*1697 ANTENNA_c249_A2
*1698 ANTENNA_c249_A3
*1699 ANTENNA_c249_S0
*1700 ANTENNA_c250_B
*1701 ANTENNA_c251_A1
*1702 ANTENNA_c251_B1
*1703 ANTENNA_c254_C_N
*1704 ANTENNA_c256_C_N
*1705 ANTENNA_c260_Y
*1706 ANTENNA_c261_B
*1707 ANTENNA_c261_C
*1708 ANTENNA_c262_A0
*1709 ANTENNA_c262_A1
*1710 ANTENNA_c262_A3
*1711 ANTENNA_c262_S0
*1712 ANTENNA_c263_A0
*1713 ANTENNA_c263_A3
*1714 ANTENNA_c264_Y
*1715 ANTENNA_c265_X
*1716 ANTENNA_c266_A_N
*1717 ANTENNA_c266_B
*1718 ANTENNA_c267_B
*1719 ANTENNA_c267_Y
*1720 ANTENNA_c268_B
*1721 ANTENNA_c269_A
*1722 ANTENNA_c270_A_N
*1723 ANTENNA_c270_B
*1724 ANTENNA_c272_Y
*1725 ANTENNA_c273_B
*1726 ANTENNA_c274_X
*1727 ANTENNA_c275_A
*1728 ANTENNA_c275_C
*1729 ANTENNA_c276_C
*1730 ANTENNA_c277_A
*1731 ANTENNA_c277_B
*1732 ANTENNA_c277_X
*1733 ANTENNA_c278_B
*1734 ANTENNA_c279_C
*1735 ANTENNA_c282_B
*1736 ANTENNA_c282_C
*1737 ANTENNA_c282_Y
*1738 ANTENNA_c283_C
*1739 ANTENNA_c284_X
*1740 ANTENNA_c287_A
*1741 ANTENNA_c287_B
*1742 ANTENNA_c288_A
*1743 ANTENNA_c289_B_N
*1744 ANTENNA_c290_B
*1745 ANTENNA_c290_C_N
*1746 ANTENNA_c290_D_N
*1747 ANTENNA_c290_X
*1748 ANTENNA_c291_Y
*1749 ANTENNA_c292_B
*1750 ANTENNA_c293_B
*1751 ANTENNA_c293_C_N
*1752 ANTENNA_c294_A
*1753 ANTENNA_c294_B
*1754 ANTENNA_c294_C_N
*1755 ANTENNA_c294_D_N
*1756 ANTENNA_c297_X
*1757 ANTENNA_c299_A
*1758 ANTENNA_c299_B
*1759 ANTENNA_c300_X
*1760 ANTENNA_c301_21_A
*1761 ANTENNA_c301_22_A
*1762 ANTENNA_c301_23_A
*1763 ANTENNA_c302_B
*1764 ANTENNA_c304_S0
*1765 ANTENNA_c304_S1
*1766 ANTENNA_c305_B
*1767 ANTENNA_c306_CLK
*1768 ANTENNA_c306_Q
*1769 ANTENNA_c306_SCE
*1770 ANTENNA_c309_B
*1771 ANTENNA_c309_C_N
*1772 ANTENNA_c309_Y
*1773 ANTENNA_c310_A
*1774 ANTENNA_c310_B
*1775 ANTENNA_c310_C_N
*1776 ANTENNA_c311_C
*1777 ANTENNA_c312_B
*1778 ANTENNA_c312_X
*1779 ANTENNA_c313_A1
*1780 ANTENNA_c313_A2
*1781 ANTENNA_c313_B1
*1782 ANTENNA_c313_C1
*1783 ANTENNA_c315_A
*1784 ANTENNA_c316_B
*1785 ANTENNA_c317_A
*1786 ANTENNA_c317_B
*1787 ANTENNA_c317_X
*1788 ANTENNA_c320_D1
*1789 ANTENNA_c321_B
*1790 ANTENNA_c322_A
*1791 ANTENNA_c322_B
*1792 ANTENNA_c323_A_N
*1793 ANTENNA_c323_C
*1794 ANTENNA_c324_B1
*1795 ANTENNA_c324_C1
*1796 ANTENNA_c325_CLK_N
*1797 ANTENNA_c325_Q
*1798 ANTENNA_c325_Q_N
*1799 ANTENNA_c326_X
*1800 ANTENNA_c327_A1
*1801 ANTENNA_c327_A2
*1802 ANTENNA_c327_B1
*1803 ANTENNA_c327_D1
*1804 ANTENNA_c328_A1
*1805 ANTENNA_c328_A2
*1806 ANTENNA_c328_B1
*1807 ANTENNA_c328_C1
*1808 ANTENNA_c329_A2
*1809 ANTENNA_c329_S0
*1810 ANTENNA_c330_A
*1811 ANTENNA_c330_B
*1812 ANTENNA_c333_Y
*1813 ANTENNA_c335_Y
*1814 ANTENNA_c336_C
*1815 ANTENNA_c338_A
*1816 ANTENNA_c338_B
*1817 ANTENNA_c340_D_N
*1818 ANTENNA_c341_B
*1819 ANTENNA_c341_C_N
*1820 ANTENNA_c342_D_N
*1821 ANTENNA_c344_RESET_B
*1822 ANTENNA_c344_SCE
*1823 ANTENNA_c345_X
*1824 ANTENNA_c346_A0
*1825 ANTENNA_c346_A2