*SPEF "ieee 1481-1999"
*DESIGN "netlist_1"
*DATE "21:28:07 Friday July 19, 2024"
*VENDOR "The OpenROAD Project"
*PROGRAM "OpenROAD"
*VERSION "d423155d69de7f683a23f6916ead418a615ad4ad"
*DESIGN_FLOW "NAME_SCOPE LOCAL" "PIN_CAP NONE"
*DIVIDER /
*DELIMITER :
*BUS_DELIMITER []
*T_UNIT 1 NS
*C_UNIT 1 PF
*R_UNIT 1 OHM
*L_UNIT 1 HENRY

*NAME_MAP
*3 clk
*4 in0
*5 in1
*6 in10
*7 in11
*8 in12
*9 in13
*10 in14
*11 in15
*12 in16
*13 in17
*14 in18
*15 in19
*16 in2
*17 in20
*18 in21
*19 in22
*20 in23
*21 in24
*22 in25
*23 in26
*24 in27
*25 in28
*26 in29
*27 in3
*28 in30
*29 in31
*30 in32
*31 in33
*32 in34
*33 in35
*34 in36
*35 in37
*36 in38
*37 in39
*38 in4
*39 in40
*40 in41
*41 in42
*42 in43
*43 in44
*44 in45
*45 in46
*46 in47
*47 in48
*48 in49
*49 in5
*50 in50
*51 in51
*52 in52
*53 in53
*54 in54
*55 in55
*56 in56
*57 in57
*58 in58
*59 in59
*60 in6
*61 in60
*62 in61
*63 in7
*64 in8
*65 in9
*66 out0
*67 out1
*68 out10
*69 out11
*70 out12
*71 out13
*72 out14
*73 out15
*74 out16
*75 out17
*76 out18
*77 out19
*78 out2
*79 out20
*80 out21
*81 out22
*82 out23
*83 out24
*84 out25
*85 out26
*86 out27
*87 out28
*88 out29
*89 out3
*90 out30
*91 out31
*92 out32
*93 out33
*94 out34
*95 out35
*96 out36
*97 out37
*98 out38
*99 out39
*100 out4
*101 out40
*102 out41
*103 out42
*104 out43
*105 out44
*106 out45
*107 out46
*108 out47
*109 out48
*110 out49
*111 out5
*112 out50
*113 out51
*114 out52
*115 out53
*116 out54
*117 out55
*118 out56
*119 out57
*120 out58
*121 out59
*122 out6
*123 out60
*124 out61
*125 out7
*126 out8
*127 out9
*128 rst
*129 clknet_0_clk
*130 clknet_0_net120
*131 clknet_0_net121
*132 clknet_0_net122
*133 clknet_0_net125
*134 clknet_0_net140
*135 clknet_0_net141
*136 clknet_0_net144
*137 clknet_0_net145
*138 clknet_0_net147
*139 clknet_0_net151
*140 clknet_0_net152
*141 clknet_0_net156
*142 clknet_0_net159
*143 clknet_0_net162
*144 clknet_0_net174
*145 clknet_0_net181
*146 clknet_0_net187
*147 clknet_0_net242
*148 clknet_0_net244
*149 clknet_0_net245
*150 clknet_0_net249
*151 clknet_0_net251
*152 clknet_0_net275
*153 clknet_0_net280
*154 clknet_0_net293
*155 clknet_0_net294
*156 clknet_0_net296
*157 clknet_0_net297
*158 clknet_0_net299
*159 clknet_0_net374
*160 clknet_0_net378
*161 clknet_0_net383
*162 clknet_0_net385
*163 clknet_0_net387
*164 clknet_0_net407
*165 clknet_0_net470
*166 clknet_0_net471
*167 clknet_0_net476
*168 clknet_0_net485
*169 clknet_0_net490
*170 clknet_0_net496
*171 clknet_0_net498
*172 clknet_0_net500
*173 clknet_0_net501
*174 clknet_0_net510
*175 clknet_0_net519
*176 clknet_0_net521
*177 clknet_0_net544
*178 clknet_0_net545
*179 clknet_0_net547
*180 clknet_0_net552
*181 clknet_0_net561
*182 clknet_0_net563
*183 clknet_0_net568
*184 clknet_0_net570
*185 clknet_0_net571
*186 clknet_0_net574
*187 clknet_0_net576
*188 clknet_0_net577
*189 clknet_0_net587
*190 clknet_0_net588
*191 clknet_0_net593
*192 clknet_0_net598
*193 clknet_0_net605
*194 clknet_0_net606
*195 clknet_0_net613
*196 clknet_0_net616
*197 clknet_0_net618
*198 clknet_0_net619
*199 clknet_0_net621
*200 clknet_0_net623
*201 clknet_0_net636
*202 clknet_0_net711
*203 clknet_0_net742
*204 clknet_0_net743
*205 clknet_0_net765
*206 clknet_0_net766
*207 clknet_0_net780
*208 clknet_0_net781
*209 clknet_0_net782
*210 clknet_0_net801
*211 clknet_0_net802
*212 clknet_0_net803
*213 clknet_0_net821
*214 clknet_0_net822
*215 clknet_0_net841
*216 clknet_0_net842
*217 clknet_0_net843
*218 clknet_0_net925
*219 clknet_0_net932
*220 clknet_0_net935
*221 clknet_0_net939
*222 clknet_0_net940
*223 clknet_0_net942
*224 clknet_0_net943
*225 clknet_0_net956
*226 clknet_0_net957
*227 clknet_0_net961
*228 clknet_0_net971
*229 clknet_0_net972
*230 clknet_0_net975
*231 clknet_1_0__leaf_net120
*232 clknet_1_0__leaf_net121
*233 clknet_1_0__leaf_net122
*234 clknet_1_0__leaf_net125
*235 clknet_1_0__leaf_net140
*236 clknet_1_0__leaf_net141
*237 clknet_1_0__leaf_net144
*238 clknet_1_0__leaf_net145
*239 clknet_1_0__leaf_net147
*240 clknet_1_0__leaf_net151
*241 clknet_1_0__leaf_net152
*242 clknet_1_0__leaf_net156
*243 clknet_1_0__leaf_net159
*244 clknet_1_0__leaf_net162
*245 clknet_1_0__leaf_net174
*246 clknet_1_0__leaf_net181
*247 clknet_1_0__leaf_net187
*248 clknet_1_0__leaf_net242
*249 clknet_1_0__leaf_net244
*250 clknet_1_0__leaf_net245
*251 clknet_1_0__leaf_net249
*252 clknet_1_0__leaf_net251
*253 clknet_1_0__leaf_net275
*254 clknet_1_0__leaf_net280
*255 clknet_1_0__leaf_net293
*256 clknet_1_0__leaf_net294
*257 clknet_1_0__leaf_net296
*258 clknet_1_0__leaf_net297
*259 clknet_1_0__leaf_net299
*260 clknet_1_0__leaf_net374
*261 clknet_1_0__leaf_net378
*262 clknet_1_0__leaf_net383
*263 clknet_1_0__leaf_net385
*264 clknet_1_0__leaf_net387
*265 clknet_1_0__leaf_net407
*266 clknet_1_0__leaf_net470
*267 clknet_1_0__leaf_net471
*268 clknet_1_0__leaf_net476
*269 clknet_1_0__leaf_net485
*270 clknet_1_0__leaf_net490
*271 clknet_1_0__leaf_net496
*272 clknet_1_0__leaf_net498
*273 clknet_1_0__leaf_net500
*274 clknet_1_0__leaf_net501
*275 clknet_1_0__leaf_net510
*276 clknet_1_0__leaf_net519
*277 clknet_1_0__leaf_net521
*278 clknet_1_0__leaf_net544
*279 clknet_1_0__leaf_net545
*280 clknet_1_0__leaf_net547
*281 clknet_1_0__leaf_net552
*282 clknet_1_0__leaf_net561
*283 clknet_1_0__leaf_net563
*284 clknet_1_0__leaf_net568
*285 clknet_1_0__leaf_net570
*286 clknet_1_0__leaf_net571
*287 clknet_1_0__leaf_net574
*288 clknet_1_0__leaf_net576
*289 clknet_1_0__leaf_net577
*290 clknet_1_0__leaf_net587
*291 clknet_1_0__leaf_net588
*292 clknet_1_0__leaf_net593
*293 clknet_1_0__leaf_net598
*294 clknet_1_0__leaf_net605
*295 clknet_1_0__leaf_net606
*296 clknet_1_0__leaf_net613
*297 clknet_1_0__leaf_net616
*298 clknet_1_0__leaf_net618
*299 clknet_1_0__leaf_net619
*300 clknet_1_0__leaf_net621
*301 clknet_1_0__leaf_net623
*302 clknet_1_0__leaf_net636
*303 clknet_1_0__leaf_net711
*304 clknet_1_0__leaf_net742
*305 clknet_1_0__leaf_net743
*306 clknet_1_0__leaf_net765
*307 clknet_1_0__leaf_net766
*308 clknet_1_0__leaf_net780
*309 clknet_1_0__leaf_net781
*310 clknet_1_0__leaf_net782
*311 clknet_1_0__leaf_net801
*312 clknet_1_0__leaf_net802
*313 clknet_1_0__leaf_net803
*314 clknet_1_0__leaf_net821
*315 clknet_1_0__leaf_net822
*316 clknet_1_0__leaf_net841
*317 clknet_1_0__leaf_net842
*318 clknet_1_0__leaf_net843
*319 clknet_1_0__leaf_net925
*320 clknet_1_0__leaf_net932
*321 clknet_1_0__leaf_net935
*322 clknet_1_0__leaf_net939
*323 clknet_1_0__leaf_net940
*324 clknet_1_0__leaf_net942
*325 clknet_1_0__leaf_net943
*326 clknet_1_0__leaf_net956
*327 clknet_1_0__leaf_net957
*328 clknet_1_0__leaf_net961
*329 clknet_1_0__leaf_net971
*330 clknet_1_0__leaf_net972
*331 clknet_1_0__leaf_net975
*332 clknet_1_1__leaf_net120
*333 clknet_1_1__leaf_net121
*334 clknet_1_1__leaf_net122
*335 clknet_1_1__leaf_net125
*336 clknet_1_1__leaf_net140
*337 clknet_1_1__leaf_net141
*338 clknet_1_1__leaf_net144
*339 clknet_1_1__leaf_net145
*340 clknet_1_1__leaf_net147
*341 clknet_1_1__leaf_net151
*342 clknet_1_1__leaf_net152
*343 clknet_1_1__leaf_net156
*344 clknet_1_1__leaf_net159
*345 clknet_1_1__leaf_net162
*346 clknet_1_1__leaf_net174
*347 clknet_1_1__leaf_net181
*348 clknet_1_1__leaf_net187
*349 clknet_1_1__leaf_net242
*350 clknet_1_1__leaf_net244
*351 clknet_1_1__leaf_net245
*352 clknet_1_1__leaf_net249
*353 clknet_1_1__leaf_net251
*354 clknet_1_1__leaf_net275
*355 clknet_1_1__leaf_net280
*356 clknet_1_1__leaf_net293
*357 clknet_1_1__leaf_net294
*358 clknet_1_1__leaf_net296
*359 clknet_1_1__leaf_net297
*360 clknet_1_1__leaf_net299
*361 clknet_1_1__leaf_net374
*362 clknet_1_1__leaf_net378
*363 clknet_1_1__leaf_net383
*364 clknet_1_1__leaf_net385
*365 clknet_1_1__leaf_net387
*366 clknet_1_1__leaf_net407
*367 clknet_1_1__leaf_net470
*368 clknet_1_1__leaf_net471
*369 clknet_1_1__leaf_net476
*370 clknet_1_1__leaf_net485
*371 clknet_1_1__leaf_net490
*372 clknet_1_1__leaf_net496
*373 clknet_1_1__leaf_net498
*374 clknet_1_1__leaf_net500
*375 clknet_1_1__leaf_net501
*376 clknet_1_1__leaf_net510
*377 clknet_1_1__leaf_net519
*378 clknet_1_1__leaf_net521
*379 clknet_1_1__leaf_net544
*380 clknet_1_1__leaf_net545
*381 clknet_1_1__leaf_net547
*382 clknet_1_1__leaf_net552
*383 clknet_1_1__leaf_net561
*384 clknet_1_1__leaf_net563
*385 clknet_1_1__leaf_net568
*386 clknet_1_1__leaf_net570
*387 clknet_1_1__leaf_net571
*388 clknet_1_1__leaf_net574
*389 clknet_1_1__leaf_net576
*390 clknet_1_1__leaf_net577
*391 clknet_1_1__leaf_net587
*392 clknet_1_1__leaf_net588
*393 clknet_1_1__leaf_net593
*394 clknet_1_1__leaf_net598
*395 clknet_1_1__leaf_net605
*396 clknet_1_1__leaf_net606
*397 clknet_1_1__leaf_net613
*398 clknet_1_1__leaf_net616
*399 clknet_1_1__leaf_net618
*400 clknet_1_1__leaf_net619
*401 clknet_1_1__leaf_net621
*402 clknet_1_1__leaf_net623
*403 clknet_1_1__leaf_net636
*404 clknet_1_1__leaf_net711
*405 clknet_1_1__leaf_net742
*406 clknet_1_1__leaf_net743
*407 clknet_1_1__leaf_net765
*408 clknet_1_1__leaf_net766
*409 clknet_1_1__leaf_net780
*410 clknet_1_1__leaf_net781
*411 clknet_1_1__leaf_net782
*412 clknet_1_1__leaf_net801
*413 clknet_1_1__leaf_net802
*414 clknet_1_1__leaf_net803
*415 clknet_1_1__leaf_net821
*416 clknet_1_1__leaf_net822
*417 clknet_1_1__leaf_net841
*418 clknet_1_1__leaf_net842
*419 clknet_1_1__leaf_net843
*420 clknet_1_1__leaf_net925
*421 clknet_1_1__leaf_net932
*422 clknet_1_1__leaf_net935
*423 clknet_1_1__leaf_net939
*424 clknet_1_1__leaf_net940
*425 clknet_1_1__leaf_net942
*426 clknet_1_1__leaf_net943
*427 clknet_1_1__leaf_net956
*428 clknet_1_1__leaf_net957
*429 clknet_1_1__leaf_net961
*430 clknet_1_1__leaf_net971
*431 clknet_1_1__leaf_net972
*432 clknet_1_1__leaf_net975
*433 clknet_4_0_0_clk
*434 clknet_4_10_0_clk
*435 clknet_4_11_0_clk
*436 clknet_4_12_0_clk
*437 clknet_4_13_0_clk
*438 clknet_4_14_0_clk
*439 clknet_4_15_0_clk
*440 clknet_4_1_0_clk
*441 clknet_4_2_0_clk
*442 clknet_4_3_0_clk
*443 clknet_4_4_0_clk
*444 clknet_4_5_0_clk
*445 clknet_4_6_0_clk
*446 clknet_4_7_0_clk
*447 clknet_4_8_0_clk
*448 clknet_4_9_0_clk
*449 net0
*450 net1
*451 net10
*452 net100
*453 net1000
*454 net1001
*455 net1002
*456 net1003
*457 net1004
*458 net1005
*459 net1006
*460 net1007
*461 net1008
*462 net1009
*463 net101
*464 net1010
*465 net1011
*466 net1012
*467 net1013
*468 net1014
*469 net1015
*470 net1016
*471 net1017
*472 net1018
*473 net1019
*474 net102
*475 net1020
*476 net1021
*477 net1022
*478 net1023
*479 net1024
*480 net1025
*481 net1026
*482 net1027
*483 net1028
*484 net1029
*485 net103
*486 net1030
*487 net1031
*488 net1032
*489 net1033
*490 net1034
*491 net1035
*492 net1036
*493 net1037
*494 net1038
*495 net1039
*496 net104
*497 net1040
*498 net1041
*499 net1042
*500 net1043
*501 net1044
*502 net1045
*503 net1046
*504 net1047
*505 net1048
*506 net1049
*507 net105
*508 net1050
*509 net1051
*510 net1052
*511 net1053
*512 net1054
*513 net1055
*514 net1056
*515 net1057
*516 net1058
*517 net1059
*518 net106
*519 net1060
*520 net1061
*521 net1062
*522 net1063
*523 net1064
*524 net1065
*525 net1066
*526 net1067
*527 net1068
*528 net1069
*529 net107
*530 net1070
*531 net1071
*532 net1072
*533 net1073
*534 net1074
*535 net108
*536 net109
*537 net11
*538 net110
*539 net111
*540 net112
*541 net113
*542 net114
*543 net115
*544 net116
*545 net117
*546 net118
*547 net119
*548 net12
*549 net120
*550 net121
*551 net122
*552 net123
*553 net124
*554 net125
*555 net126
*556 net127
*557 net128
*558 net129
*559 net13
*560 net130
*561 net131
*562 net132
*563 net133
*564 net134
*565 net135
*566 net136
*567 net137
*568 net138
*569 net139
*570 net14
*571 net140
*572 net141
*573 net142
*574 net143
*575 net144
*576 net145
*577 net146
*578 net147
*579 net148
*580 net149
*581 net15
*582 net150
*583 net151
*584 net152
*585 net153
*586 net154
*587 net155
*588 net156
*589 net157
*590 net158
*591 net159
*592 net16
*593 net160
*594 net161
*595 net162
*596 net163
*597 net164
*598 net165
*599 net166
*600 net167
*601 net168
*602 net169
*603 net17
*604 net170
*605 net171
*606 net172
*607 net173
*608 net174
*609 net175
*610 net176
*611 net177
*612 net178
*613 net179
*614 net18
*615 net180
*616 net181
*617 net182
*618 net183
*619 net184
*620 net185
*621 net186
*622 net187
*623 net188
*624 net189
*625 net19
*626 net190
*627 net191
*628 net192
*629 net193
*630 net194
*631 net195
*632 net196
*633 net197
*634 net198
*635 net199
*636 net2
*637 net20
*638 net200
*639 net201
*640 net202
*641 net203
*642 net204
*643 net205
*644 net206
*645 net207
*646 net208
*647 net209
*648 net21
*649 net210
*650 net211
*651 net212
*652 net213
*653 net214
*654 net215
*655 net216
*656 net217
*657 net218
*658 net219
*659 net22
*660 net220
*661 net221
*662 net222
*663 net223
*664 net224
*665 net225
*666 net226
*667 net227
*668 net228
*669 net229
*670 net23
*671 net230
*672 net231
*673 net232
*674 net233
*675 net234
*676 net235
*677 net236
*678 net237
*679 net238
*680 net239
*681 net24
*682 net240
*683 net241
*684 net242
*685 net243
*686 net244
*687 net245
*688 net246
*689 net247
*690 net248
*691 net249
*692 net25
*693 net250
*694 net251
*695 net252
*696 net253
*697 net254
*698 net255
*699 net256
*700 net257
*701 net258
*702 net259
*703 net26
*704 net260
*705 net261
*706 net262
*707 net263
*708 net264
*709 net265
*710 net266
*711 net267
*712 net268
*713 net269
*714 net27
*715 net270
*716 net271
*717 net272
*718 net273
*719 net274
*720 net275
*721 net276
*722 net277
*723 net278
*724 net279
*725 net28
*726 net280
*727 net281
*728 net282
*729 net283
*730 net284
*731 net285
*732 net286
*733 net287
*734 net288
*735 net289
*736 net29
*737 net290
*738 net291
*739 net292
*740 net293
*741 net294
*742 net295
*743 net296
*744 net297
*745 net298
*746 net299
*747 net3
*748 net30
*749 net300
*750 net301
*751 net302
*752 net303
*753 net304
*754 net305
*755 net306
*756 net307
*757 net308
*758 net309
*759 net31
*760 net310
*761 net311
*762 net312
*763 net313
*764 net314
*765 net315
*766 net316
*767 net317
*768 net318
*769 net319
*770 net32
*771 net320
*772 net321
*773 net322
*774 net323
*775 net324
*776 net325
*777 net326
*778 net327
*779 net328
*780 net329
*781 net33
*782 net330
*783 net331
*784 net332
*785 net333
*786 net334
*787 net335
*788 net336
*789 net337
*790 net338
*791 net339
*792 net34
*793 net340
*794 net341
*795 net342
*796 net343
*797 net344
*798 net345
*799 net346
*800 net347
*801 net348
*802 net349
*803 net35
*804 net350
*805 net351
*806 net352
*807 net353
*808 net354
*809 net355
*810 net356
*811 net357
*812 net358
*813 net359
*814 net36
*815 net360
*816 net361
*817 net362
*818 net363
*819 net364
*820 net365
*821 net366
*822 net367
*823 net368
*824 net369
*825 net37
*826 net370
*827 net371
*828 net372
*829 net373
*830 net374
*831 net375
*832 net376
*833 net377
*834 net378
*835 net379
*836 net38
*837 net380
*838 net381
*839 net382
*840 net383
*841 net384
*842 net385
*843 net386
*844 net387
*845 net388
*846 net389
*847 net39
*848 net390
*849 net391
*850 net392
*851 net393
*852 net394
*853 net395
*854 net396
*855 net397
*856 net398
*857 net399
*858 net4
*859 net40
*860 net400
*861 net401
*862 net402
*863 net403
*864 net404
*865 net405
*866 net406
*867 net407
*868 net408
*869 net409
*870 net41
*871 net410
*872 net411
*873 net412
*874 net413
*875 net414
*876 net415
*877 net416
*878 net417
*879 net418
*880 net419
*881 net42
*882 net420
*883 net421
*884 net422
*885 net423
*886 net424
*887 net425
*888 net426
*889 net427
*890 net428
*891 net429
*892 net43
*893 net430
*894 net431
*895 net432
*896 net433
*897 net434
*898 net435
*899 net436
*900 net437
*901 net438
*902 net439
*903 net44
*904 net440
*905 net441
*906 net442
*907 net443
*908 net444
*909 net445
*910 net446
*911 net447
*912 net448
*913 net449
*914 net45
*915 net450
*916 net451
*917 net452
*918 net453
*919 net454
*920 net455
*921 net456
*922 net457
*923 net458
*924 net459
*925 net46
*926 net460
*927 net461
*928 net462
*929 net463
*930 net464
*931 net465
*932 net466
*933 net467
*934 net468
*935 net469
*936 net47
*937 net470
*938 net471
*939 net472
*940 net473
*941 net474
*942 net475
*943 net476
*944 net477
*945 net478
*946 net479
*947 net48
*948 net480
*949 net481
*950 net482
*951 net483
*952 net484
*953 net485
*954 net486
*955 net487
*956 net488
*957 net489
*958 net49
*959 net490
*960 net491
*961 net492
*962 net493
*963 net494
*964 net495
*965 net496
*966 net497
*967 net498
*968 net499
*969 net5
*970 net50
*971 net500
*972 net501
*973 net502
*974 net503
*975 net504
*976 net505
*977 net506
*978 net507
*979 net508
*980 net509
*981 net51
*982 net510
*983 net511
*984 net512
*985 net513
*986 net514
*987 net515
*988 net516
*989 net517
*990 net518
*991 net519
*992 net52
*993 net520
*994 net521
*995 net522
*996 net523
*997 net524
*998 net525
*999 net526
*1000 net527
*1001 net528
*1002 net529
*1003 net53
*1004 net530
*1005 net531
*1006 net532
*1007 net533
*1008 net534
*1009 net535
*1010 net536
*1011 net537
*1012 net538
*1013 net539
*1014 net54
*1015 net540
*1016 net541
*1017 net542
*1018 net543
*1019 net544
*1020 net545
*1021 net546
*1022 net547
*1023 net548
*1024 net549
*1025 net55
*1026 net550
*1027 net551
*1028 net552
*1029 net553
*1030 net554
*1031 net555
*1032 net556
*1033 net557
*1034 net558
*1035 net559
*1036 net56
*1037 net560
*1038 net561
*1039 net562
*1040 net563
*1041 net564
*1042 net565
*1043 net566
*1044 net567
*1045 net568
*1046 net569
*1047 net57
*1048 net570
*1049 net571
*1050 net572
*1051 net573
*1052 net574
*1053 net575
*1054 net576
*1055 net577
*1056 net578
*1057 net579
*1058 net58
*1059 net580
*1060 net581
*1061 net582
*1062 net583
*1063 net584
*1064 net585
*1065 net586
*1066 net587
*1067 net588
*1068 net589
*1069 net59
*1070 net590
*1071 net591
*1072 net592
*1073 net593
*1074 net594
*1075 net595
*1076 net596
*1077 net597
*1078 net598
*1079 net599
*1080 net6
*1081 net60
*1082 net600
*1083 net601
*1084 net602
*1085 net603
*1086 net604
*1087 net605
*1088 net606
*1089 net607
*1090 net608
*1091 net609
*1092 net61
*1093 net610
*1094 net611
*1095 net612
*1096 net613
*1097 net614
*1098 net615
*1099 net616
*1100 net617
*1101 net618
*1102 net619
*1103 net62
*1104 net620
*1105 net621
*1106 net622
*1107 net623
*1108 net624
*1109 net625
*1110 net626
*1111 net627
*1112 net628
*1113 net629
*1114 net63
*1115 net630
*1116 net631
*1117 net632
*1118 net633
*1119 net634
*1120 net635
*1121 net636
*1122 net637
*1123 net638
*1124 net639
*1125 net64
*1126 net640
*1127 net641
*1128 net642
*1129 net643
*1130 net644
*1131 net645
*1132 net646
*1133 net647
*1134 net648
*1135 net649
*1136 net65
*1137 net650
*1138 net651
*1139 net652
*1140 net653
*1141 net654
*1142 net655
*1143 net656
*1144 net657
*1145 net658
*1146 net659
*1147 net66
*1148 net660
*1149 net661
*1150 net662
*1151 net663
*1152 net664
*1153 net665
*1154 net666
*1155 net667
*1156 net668
*1157 net669
*1158 net67
*1159 net670
*1160 net671
*1161 net672
*1162 net673
*1163 net674
*1164 net675
*1165 net676
*1166 net677
*1167 net678
*1168 net679
*1169 net68
*1170 net680
*1171 net681
*1172 net682
*1173 net683
*1174 net684
*1175 net685
*1176 net686
*1177 net687
*1178 net688
*1179 net689
*1180 net69
*1181 net690
*1182 net691
*1183 net692
*1184 net693
*1185 net694
*1186 net695
*1187 net696
*1188 net697
*1189 net698
*1190 net699
*1191 net7
*1192 net70
*1193 net700
*1194 net701
*1195 net702
*1196 net703
*1197 net704
*1198 net705
*1199 net706
*1200 net707
*1201 net708
*1202 net709
*1203 net71
*1204 net710
*1205 net711
*1206 net712
*1207 net713
*1208 net714
*1209 net715
*1210 net716
*1211 net717
*1212 net718
*1213 net719
*1214 net72
*1215 net720
*1216 net721
*1217 net722
*1218 net723
*1219 net724
*1220 net725
*1221 net726
*1222 net727
*1223 net728
*1224 net729
*1225 net73
*1226 net730
*1227 net731
*1228 net732
*1229 net733
*1230 net734
*1231 net735
*1232 net736
*1233 net737
*1234 net738
*1235 net739
*1236 net74
*1237 net740
*1238 net741
*1239 net742
*1240 net743
*1241 net744
*1242 net745
*1243 net746
*1244 net747
*1245 net748
*1246 net749
*1247 net75
*1248 net750
*1249 net751
*1250 net752
*1251 net753
*1252 net754
*1253 net755
*1254 net756
*1255 net757
*1256 net758
*1257 net759
*1258 net76
*1259 net760
*1260 net761
*1261 net762
*1262 net763
*1263 net764
*1264 net765
*1265 net766
*1266 net767
*1267 net768
*1268 net769
*1269 net77
*1270 net770
*1271 net771
*1272 net772
*1273 net773
*1274 net774
*1275 net775
*1276 net776
*1277 net777
*1278 net778
*1279 net779
*1280 net78
*1281 net780
*1282 net781
*1283 net782
*1284 net783
*1285 net784
*1286 net785
*1287 net786
*1288 net787
*1289 net788
*1290 net789
*1291 net79
*1292 net790
*1293 net791
*1294 net792
*1295 net793
*1296 net794
*1297 net795
*1298 net796
*1299 net797
*1300 net798
*1301 net799
*1302 net8
*1303 net80
*1304 net800
*1305 net801
*1306 net802
*1307 net803
*1308 net804
*1309 net805
*1310 net806
*1311 net807
*1312 net808
*1313 net809
*1314 net81
*1315 net810
*1316 net811
*1317 net812
*1318 net813
*1319 net814
*1320 net815
*1321 net816
*1322 net817
*1323 net818
*1324 net819
*1325 net82
*1326 net820
*1327 net821
*1328 net822
*1329 net823
*1330 net824
*1331 net825
*1332 net826
*1333 net827
*1334 net828
*1335 net829
*1336 net83
*1337 net830
*1338 net831
*1339 net832
*1340 net833
*1341 net834
*1342 net835
*1343 net836
*1344 net837
*1345 net838
*1346 net839
*1347 net84
*1348 net840
*1349 net841
*1350 net842
*1351 net843
*1352 net844
*1353 net845
*1354 net846
*1355 net847
*1356 net848
*1357 net849
*1358 net85
*1359 net850
*1360 net851
*1361 net852
*1362 net853
*1363 net854
*1364 net855
*1365 net856
*1366 net857
*1367 net858
*1368 net859
*1369 net86
*1370 net860
*1371 net861
*1372 net862
*1373 net863
*1374 net864
*1375 net865
*1376 net866
*1377 net867
*1378 net868
*1379 net869
*1380 net87
*1381 net870
*1382 net871
*1383 net872
*1384 net873
*1385 net874
*1386 net875
*1387 net876
*1388 net877
*1389 net878
*1390 net879
*1391 net88
*1392 net880
*1393 net881
*1394 net882
*1395 net883
*1396 net884
*1397 net885
*1398 net886
*1399 net887
*1400 net888
*1401 net889
*1402 net89
*1403 net890
*1404 net891
*1405 net892
*1406 net893
*1407 net894
*1408 net895
*1409 net896
*1410 net897
*1411 net898
*1412 net899
*1413 net9
*1414 net90
*1415 net900
*1416 net901
*1417 net902
*1418 net903
*1419 net904
*1420 net905
*1421 net906
*1422 net907
*1423 net908
*1424 net909
*1425 net91
*1426 net910
*1427 net911
*1428 net912
*1429 net913
*1430 net914
*1431 net915
*1432 net916
*1433 net917
*1434 net918
*1435 net919
*1436 net92
*1437 net920
*1438 net921
*1439 net922
*1440 net923
*1441 net924
*1442 net925
*1443 net926
*1444 net927
*1445 net928
*1446 net929
*1447 net93
*1448 net930
*1449 net931
*1450 net932
*1451 net933
*1452 net934
*1453 net935
*1454 net936
*1455 net937
*1456 net938
*1457 net939
*1458 net94
*1459 net940
*1460 net941
*1461 net942
*1462 net943
*1463 net944
*1464 net945
*1465 net946
*1466 net947
*1467 net948
*1468 net949
*1469 net95
*1470 net950
*1471 net951
*1472 net952
*1473 net953
*1474 net954
*1475 net955
*1476 net956
*1477 net957
*1478 net958
*1479 net959
*1480 net96
*1481 net960
*1482 net961
*1483 net962
*1484 net963
*1485 net964
*1486 net965
*1487 net966
*1488 net967
*1489 net968
*1490 net969
*1491 net97
*1492 net970
*1493 net971
*1494 net972
*1495 net973
*1496 net974
*1497 net975
*1498 net976
*1499 net977
*1500 net978
*1501 net979
*1502 net98
*1503 net980
*1504 net981
*1505 net982
*1506 net983
*1507 net984
*1508 net985
*1509 net986
*1510 net987
*1511 net988
*1512 net989
*1513 net99
*1514 net990
*1515 net991
*1516 net992
*1517 net993
*1518 net994
*1519 net995
*1520 net996
*1521 net997
*1522 net998
*1523 net999
*1524 ANTENNA_c100_B1
*1525 ANTENNA_c101_A2
*1526 ANTENNA_c101_A3
*1527 ANTENNA_c101_A4
*1528 ANTENNA_c103_A1
*1529 ANTENNA_c105_A2
*1530 ANTENNA_c105_A3
*1531 ANTENNA_c105_S0
*1532 ANTENNA_c105_X
*1533 ANTENNA_c106_A1
*1534 ANTENNA_c106_A3
*1535 ANTENNA_c106_S0
*1536 ANTENNA_c107_A2
*1537 ANTENNA_c107_B1
*1538 ANTENNA_c108_B1
*1539 ANTENNA_c108_Y
*1540 ANTENNA_c109_A1
*1541 ANTENNA_c109_A3
*1542 ANTENNA_c111_A2
*1543 ANTENNA_c111_B1_N
*1544 ANTENNA_c112_A
*1545 ANTENNA_c112_B
*1546 ANTENNA_c113_A1
*1547 ANTENNA_c113_B1_N
*1548 ANTENNA_c114_A1
*1549 ANTENNA_c115_A1
*1550 ANTENNA_c115_B1
*1551 ANTENNA_c116_A1
*1552 ANTENNA_c116_B1_N
*1553 ANTENNA_c118_A2
*1554 ANTENNA_c119_A2
*1555 ANTENNA_c120_CLK
*1556 ANTENNA_c121_CLK_N
*1557 ANTENNA_c122_CLK_N
*1558 ANTENNA_c124_CLK
*1559 ANTENNA_c124_SET_B
*1560 ANTENNA_c125_S0
*1561 ANTENNA_c127_A2
*1562 ANTENNA_c130_A2
*1563 ANTENNA_c130_A3
*1564 ANTENNA_c132_A2
*1565 ANTENNA_c132_B1
*1566 ANTENNA_c133_A3
*1567 ANTENNA_c133_B1
*1568 ANTENNA_c133_Y
*1569 ANTENNA_c134_A3
*1570 ANTENNA_c135_B1
*1571 ANTENNA_c136_A2
*1572 ANTENNA_c137_A2
*1573 ANTENNA_c137_A3
*1574 ANTENNA_c137_A4
*1575 ANTENNA_c139_A0
*1576 ANTENNA_c139_S1
*1577 ANTENNA_c140_X
*1578 ANTENNA_c141_S1
*1579 ANTENNA_c142_A2
*1580 ANTENNA_c142_S0
*1581 ANTENNA_c142_X
*1582 ANTENNA_c143_A2
*1583 ANTENNA_c143_S0
*1584 ANTENNA_c143_S1
*1585 ANTENNA_c143_X
*1586 ANTENNA_c144_A3
*1587 ANTENNA_c144_A4
*1588 ANTENNA_c144_B1
*1589 ANTENNA_c144_X
*1590 ANTENNA_c145_A1
*1591 ANTENNA_c145_X
*1592 ANTENNA_c146_S1
*1593 ANTENNA_c147_A2
*1594 ANTENNA_c147_S0
*1595 ANTENNA_c147_S1
*1596 ANTENNA_c149_A2
*1597 ANTENNA_c149_A3
*1598 ANTENNA_c149_S1
*1599 ANTENNA_c149_X
*1600 ANTENNA_c150_A1
*1601 ANTENNA_c150_A2
*1602 ANTENNA_c150_A3
*1603 ANTENNA_c150_S0
*1604 ANTENNA_c151_A0
*1605 ANTENNA_c151_A1
*1606 ANTENNA_c151_A3
*1607 ANTENNA_c152_A0
*1608 ANTENNA_c152_S0
*1609 ANTENNA_c153_A0
*1610 ANTENNA_c153_A2
*1611 ANTENNA_c153_X
*1612 ANTENNA_c154_A0
*1613 ANTENNA_c155_A1
*1614 ANTENNA_c155_S0
*1615 ANTENNA_c156_A2
*1616 ANTENNA_c156_A3
*1617 ANTENNA_c156_A4
*1618 ANTENNA_c156_B1
*1619 ANTENNA_c157_Y
*1620 ANTENNA_c158_S0
*1621 ANTENNA_c159_A1
*1622 ANTENNA_c159_S1
*1623 ANTENNA_c159_X
*1624 ANTENNA_c160_A0
*1625 ANTENNA_c160_A2
*1626 ANTENNA_c160_A3
*1627 ANTENNA_c160_S0
*1628 ANTENNA_c160_S1
*1629 ANTENNA_c161_A0
*1630 ANTENNA_c161_A1
*1631 ANTENNA_c161_S0
*1632 ANTENNA_c161_S1
*1633 ANTENNA_c162_A3
*1634 ANTENNA_c162_S1
*1635 ANTENNA_c162_X
*1636 ANTENNA_c163_A1
*1637 ANTENNA_c163_A3
*1638 ANTENNA_c164_B1
*1639 ANTENNA_c165_A0
*1640 ANTENNA_c165_A2
*1641 ANTENNA_c165_A3
*1642 ANTENNA_c165_S0
*1643 ANTENNA_c165_S1
*1644 ANTENNA_c166_A1
*1645 ANTENNA_c167_A4
*1646 ANTENNA_c168_A1
*1647 ANTENNA_c168_A2
*1648 ANTENNA_c168_S0
*1649 ANTENNA_c168_S1
*1650 ANTENNA_c169_X
*1651 ANTENNA_c170_A2
*1652 ANTENNA_c170_A3
*1653 ANTENNA_c170_S1
*1654 ANTENNA_c170_X
*1655 ANTENNA_c171_A4
*1656 ANTENNA_c171_B1
*1657 ANTENNA_c171_Y
*1658 ANTENNA_c172_A2
*1659 ANTENNA_c172_A3
*1660 ANTENNA_c172_B1
*1661 ANTENNA_c173_A1
*1662 ANTENNA_c173_A2
*1663 ANTENNA_c173_B1_N
*1664 ANTENNA_c174_B1
*1665 ANTENNA_c174_Y
*1666 ANTENNA_c175_X
*1667 ANTENNA_c176_A1
*1668 ANTENNA_c176_S
*1669 ANTENNA_c176_X
*1670 ANTENNA_c177_A2
*1671 ANTENNA_c177_B1_N
*1672 ANTENNA_c177_X
*1673 ANTENNA_c178_A0
*1674 ANTENNA_c178_A1
*1675 ANTENNA_c178_A2
*1676 ANTENNA_c178_A3
*1677 ANTENNA_c178_S0
*1678 ANTENNA_c178_S1
*1679 ANTENNA_c179_A0
*1680 ANTENNA_c179_A1
*1681 ANTENNA_c179_A2
*1682 ANTENNA_c179_A3
*1683 ANTENNA_c179_S1
*1684 ANTENNA_c179_X
*1685 ANTENNA_c180_B1
*1686 ANTENNA_c181_A0
*1687 ANTENNA_c181_A1
*1688 ANTENNA_c181_A2
*1689 ANTENNA_c181_A3
*1690 ANTENNA_c181_S0
*1691 ANTENNA_c181_S1
*1692 ANTENNA_c183_A1
*1693 ANTENNA_c183_B1
*1694 ANTENNA_c183_Y
*1695 ANTENNA_c184_B1
*1696 ANTENNA_c185_A3
*1697 ANTENNA_c185_S0
*1698 ANTENNA_c185_S1
*1699 ANTENNA_c186_A0
*1700 ANTENNA_c186_A1
*1701 ANTENNA_c186_S0
*1702 ANTENNA_c186_S1
*1703 ANTENNA_c187_A0
*1704 ANTENNA_c187_A2
*1705 ANTENNA_c187_A3
*1706 ANTENNA_c188_A1
*1707 ANTENNA_c188_A2
*1708 ANTENNA_c189_S0
*1709 ANTENNA_c190_A3
*1710 ANTENNA_c190_S0
*1711 ANTENNA_c191_S0
*1712 ANTENNA_c191_S1
*1713 ANTENNA_c192_A2
*1714 ANTENNA_c192_A3
*1715 ANTENNA_c192_S0
*1716 ANTENNA_c193_A2
*1717 ANTENNA_c193_B1_N
*1718 ANTENNA_c193_Y
*1719 ANTENNA_c194_A1
*1720 ANTENNA_c194_A2
*1721 ANTENNA_c194_B1_N
*1722 ANTENNA_c195_B1_N
*1723 ANTENNA_c195_Y
*1724 ANTENNA_c196_A1
*1725 ANTENNA_c196_A2
*1726 ANTENNA_c196_Y
*1727 ANTENNA_c197_A2
*1728 ANTENNA_c197_B1_N
*1729 ANTENNA_c198_CLK
*1730 ANTENNA_c198_SCE
*1731 ANTENNA_c199_A1
*1732 ANTENNA_c199_A2
*1733 ANTENNA_c199_B1
*1734 ANTENNA_c200_A2
*1735 ANTENNA_c200_A3
*1736 ANTENNA_c200_B1
*1737 ANTENNA_c202_A0
*1738 ANTENNA_c202_A1
*1739 ANTENNA_c202_S1
*1740 ANTENNA_c203_A2
*1741 ANTENNA_c203_A3
*1742 ANTENNA_c203_S1
*1743 ANTENNA_c204_CLK_N
*1744 ANTENNA_c204_SCE
*1745 ANTENNA_c204_SET_B
*1746 ANTENNA_c205_A2
*1747 ANTENNA_c205_A3
*1748 ANTENNA_c205_S0
*1749 ANTENNA_c206_A1
*1750 ANTENNA_c206_A3
*1751 ANTENNA_c206_A4
*1752 ANTENNA_c207_CLK_N
*1753 ANTENNA_c207_SCD
*1754 ANTENNA_c207_SCE
*1755 ANTENNA_c208_A3
*1756 ANTENNA_c210_A1
*1757 ANTENNA_c210_A3
*1758 ANTENNA_c210_S0
*1759 ANTENNA_c211_A3
*1760 ANTENNA_c211_S0
*1761 ANTENNA_c211_S1
*1762 ANTENNA_c212_A0
*1763 ANTENNA_c212_A1
*1764 ANTENNA_c212_S0
*1765 ANTENNA_c213_CLK_N
*1766 ANTENNA_c213_Q
*1767 ANTENNA_c213_SCE
*1768 ANTENNA_c214_A3
*1769 ANTENNA_c214_S0
*1770 ANTENNA_c215_S1
*1771 ANTENNA_c216_S1
*1772 ANTENNA_c218_A3
*1773 ANTENNA_c218_S1
*1774 ANTENNA_c219_S1
*1775 ANTENNA_c220_A1
*1776 ANTENNA_c220_A2
*1777 ANTENNA_c220_A3
*1778 ANTENNA_c220_A4
*1779 ANTENNA_c221_A3
*1780 ANTENNA_c221_A4
*1781 ANTENNA_c222_A3
*1782 ANTENNA_c222_A4
*1783 ANTENNA_c222_B1
*1784 ANTENNA_c223_A
*1785 ANTENNA_c224_A2
*1786 ANTENNA_c224_B1
*1787 ANTENNA_c225_A1
*1788 ANTENNA_c225_A2
*1789 ANTENNA_c226_A
*1790 ANTENNA_c226_Y
*1791 ANTENNA_c227_A1
*1792 ANTENNA_c227_A4
*1793 ANTENNA_c227_B1
*1794 ANTENNA_c229_CLK
*1795 ANTENNA_c229_Q
*1796 ANTENNA_c229_Q_N
*1797 ANTENNA_c229_RESET_B
*1798 ANTENNA_c230_A3
*1799 ANTENNA_c230_A4
*1800 ANTENNA_c231_A2
*1801 ANTENNA_c231_B1
*1802 ANTENNA_c231_X
*1803 ANTENNA_c232_CLK
*1804 ANTENNA_c232_SCE
*1805 ANTENNA_c233_A2
*1806 ANTENNA_c233_A3
*1807 ANTENNA_c233_S0
*1808 ANTENNA_c233_S1
*1809 ANTENNA_c234_A1
*1810 ANTENNA_c235_CLK_N
*1811 ANTENNA_c235_Q
*1812 ANTENNA_c235_SCD
*1813 ANTENNA_c235_SCE
*1814 ANTENNA_c236_S0
*1815 ANTENNA_c236_S1
*1816 ANTENNA_c237_S1
*1817 ANTENNA_c238_A4
*1818 ANTENNA_c238_B1
*1819 ANTENNA_c239_A2
*1820 ANTENNA_c239_S1
*1821 ANTENNA_c240_CLK_N
*1822 ANTENNA_c240_SCD
*1823 ANTENNA_c240_SET_B
*1824 ANTENNA_c241_A1
*1825 ANTENNA_c241_S0
*1826 ANTENNA_c242_A2