* NGSPICE file created from netlist_0.ext - technology: sky130A

* Black-box entry subcircuit for sky130_fd_sc_hd__decap_6 abstract view
.subckt sky130_fd_sc_hd__decap_6 VGND VNB VPB VPWR
.ends

* Black-box entry subcircuit for sky130_fd_sc_hd__decap_8 abstract view
.subckt sky130_fd_sc_hd__decap_8 VGND VNB VPB VPWR
.ends

* Black-box entry subcircuit for sky130_fd_sc_hd__clkbuf_16 abstract view
.subckt sky130_fd_sc_hd__clkbuf_16 A VGND VNB VPB VPWR X
.ends

* Black-box entry subcircuit for sky130_fd_sc_hd__diode_2 abstract view
.subckt sky130_fd_sc_hd__diode_2 DIODE VGND VNB VPB VPWR
.ends

* Black-box entry subcircuit for sky130_ef_sc_hd__decap_12 abstract view
.subckt sky130_ef_sc_hd__decap_12 VPWR VGND VPB VNB
.ends

* Black-box entry subcircuit for sky130_fd_sc_hd__decap_3 abstract view
.subckt sky130_fd_sc_hd__decap_3 VGND VNB VPB VPWR
.ends

* Black-box entry subcircuit for sky130_fd_sc_hd__mux4_1 abstract view
.subckt sky130_fd_sc_hd__mux4_1 A0 A1 A2 A3 S0 S1 VGND VNB VPB VPWR X
.ends

* Black-box entry subcircuit for sky130_fd_sc_hd__xor2_4 abstract view
.subckt sky130_fd_sc_hd__xor2_4 A B VGND VNB VPB VPWR X
.ends

* Black-box entry subcircuit for sky130_fd_sc_hd__sdfbbn_2 abstract view
.subckt sky130_fd_sc_hd__sdfbbn_2 CLK_N D RESET_B SCD SCE SET_B VGND VNB VPB VPWR
+ Q Q_N
.ends

* Black-box entry subcircuit for sky130_fd_sc_hd__clkbuf_1 abstract view
.subckt sky130_fd_sc_hd__clkbuf_1 A VGND VNB VPB VPWR X
.ends

* Black-box entry subcircuit for sky130_fd_sc_hd__fill_1 abstract view
.subckt sky130_fd_sc_hd__fill_1 VGND VNB VPB VPWR
.ends

* Black-box entry subcircuit for sky130_fd_sc_hd__fill_2 abstract view
.subckt sky130_fd_sc_hd__fill_2 VGND VNB VPB VPWR
.ends

* Black-box entry subcircuit for sky130_fd_sc_hd__xor2_1 abstract view
.subckt sky130_fd_sc_hd__xor2_1 A B VGND VNB VPB VPWR X
.ends

* Black-box entry subcircuit for sky130_fd_sc_hd__a41o_1 abstract view
.subckt sky130_fd_sc_hd__a41o_1 A1 A2 A3 A4 B1 VGND VNB VPB VPWR X
.ends

* Black-box entry subcircuit for sky130_fd_sc_hd__xnor2_4 abstract view
.subckt sky130_fd_sc_hd__xnor2_4 A B VGND VNB VPB VPWR Y
.ends

* Black-box entry subcircuit for sky130_fd_sc_hd__dlclkp_2 abstract view
.subckt sky130_fd_sc_hd__dlclkp_2 CLK GATE VGND VNB VPB VPWR GCLK
.ends

* Black-box entry subcircuit for sky130_fd_sc_hd__dfxbp_1 abstract view
.subckt sky130_fd_sc_hd__dfxbp_1 CLK D VGND VNB VPB VPWR Q Q_N
.ends

* Black-box entry subcircuit for sky130_fd_sc_hd__xnor2_1 abstract view
.subckt sky130_fd_sc_hd__xnor2_1 A B VGND VNB VPB VPWR Y
.ends

* Black-box entry subcircuit for sky130_fd_sc_hd__dlxtn_1 abstract view
.subckt sky130_fd_sc_hd__dlxtn_1 D GATE_N VGND VNB VPB VPWR Q
.ends

* Black-box entry subcircuit for sky130_fd_sc_hd__tapvpwrvgnd_1 abstract view
.subckt sky130_fd_sc_hd__tapvpwrvgnd_1 VGND VPWR
.ends

* Black-box entry subcircuit for sky130_fd_sc_hd__dlygate4sd1_1 abstract view
.subckt sky130_fd_sc_hd__dlygate4sd1_1 A VGND VNB VPB VPWR X
.ends

* Black-box entry subcircuit for sky130_fd_sc_hd__decap_4 abstract view
.subckt sky130_fd_sc_hd__decap_4 VGND VNB VPB VPWR
.ends

* Black-box entry subcircuit for sky130_fd_sc_hd__buf_4 abstract view
.subckt sky130_fd_sc_hd__buf_4 A VGND VNB VPB VPWR X
.ends

* Black-box entry subcircuit for sky130_fd_sc_hd__buf_6 abstract view
.subckt sky130_fd_sc_hd__buf_6 A VGND VNB VPB VPWR X
.ends

* Black-box entry subcircuit for sky130_fd_sc_hd__buf_12 abstract view
.subckt sky130_fd_sc_hd__buf_12 A VGND VNB VPB VPWR X
.ends

* Black-box entry subcircuit for sky130_fd_sc_hd__and2b_1 abstract view
.subckt sky130_fd_sc_hd__and2b_1 A_N B VGND VNB VPB VPWR X
.ends

* Black-box entry subcircuit for sky130_fd_sc_hd__nand2b_1 abstract view
.subckt sky130_fd_sc_hd__nand2b_1 A_N B VGND VNB VPB VPWR Y
.ends

* Black-box entry subcircuit for sky130_fd_sc_hd__o21bai_1 abstract view
.subckt sky130_fd_sc_hd__o21bai_1 A1 A2 B1_N VGND VNB VPB VPWR Y
.ends

* Black-box entry subcircuit for sky130_fd_sc_hd__o21ai_4 abstract view
.subckt sky130_fd_sc_hd__o21ai_4 A1 A2 B1 VGND VNB VPB VPWR Y
.ends

* Black-box entry subcircuit for sky130_fd_sc_hd__a21oi_4 abstract view
.subckt sky130_fd_sc_hd__a21oi_4 A1 A2 B1 VGND VNB VPB VPWR Y
.ends

* Black-box entry subcircuit for sky130_fd_sc_hd__a41oi_4 abstract view
.subckt sky130_fd_sc_hd__a41oi_4 A1 A2 A3 A4 B1 VGND VNB VPB VPWR Y
.ends

* Black-box entry subcircuit for sky130_fd_sc_hd__nand2_4 abstract view
.subckt sky130_fd_sc_hd__nand2_4 A B VGND VNB VPB VPWR Y
.ends

* Black-box entry subcircuit for sky130_fd_sc_hd__or2_1 abstract view
.subckt sky130_fd_sc_hd__or2_1 A B VGND VNB VPB VPWR X
.ends

* Black-box entry subcircuit for sky130_fd_sc_hd__mux4_4 abstract view
.subckt sky130_fd_sc_hd__mux4_4 A0 A1 A2 A3 S0 S1 VGND VNB VPB VPWR X
.ends

* Black-box entry subcircuit for sky130_fd_sc_hd__a21bo_2 abstract view
.subckt sky130_fd_sc_hd__a21bo_2 A1 A2 B1_N VGND VNB VPB VPWR X
.ends

* Black-box entry subcircuit for sky130_fd_sc_hd__clkbuf_8 abstract view
.subckt sky130_fd_sc_hd__clkbuf_8 A VGND VNB VPB VPWR X
.ends

* Black-box entry subcircuit for sky130_fd_sc_hd__and2_2 abstract view
.subckt sky130_fd_sc_hd__and2_2 A B VGND VNB VPB VPWR X
.ends

* Black-box entry subcircuit for sky130_fd_sc_hd__mux4_2 abstract view
.subckt sky130_fd_sc_hd__mux4_2 A0 A1 A2 A3 S0 S1 VGND VNB VPB VPWR X
.ends

* Black-box entry subcircuit for sky130_fd_sc_hd__o21a_4 abstract view
.subckt sky130_fd_sc_hd__o21a_4 A1 A2 B1 VGND VNB VPB VPWR X
.ends

* Black-box entry subcircuit for sky130_fd_sc_hd__dlygate4sd3_1 abstract view
.subckt sky130_fd_sc_hd__dlygate4sd3_1 A VGND VNB VPB VPWR X
.ends

* Black-box entry subcircuit for sky130_fd_sc_hd__clkbuf_4 abstract view
.subckt sky130_fd_sc_hd__clkbuf_4 A VGND VNB VPB VPWR X
.ends

* Black-box entry subcircuit for sky130_fd_sc_hd__clkinv_8 abstract view
.subckt sky130_fd_sc_hd__clkinv_8 A VGND VNB VPB VPWR Y
.ends

* Black-box entry subcircuit for sky130_fd_sc_hd__a41oi_2 abstract view
.subckt sky130_fd_sc_hd__a41oi_2 A1 A2 A3 A4 B1 VGND VNB VPB VPWR Y
.ends

* Black-box entry subcircuit for sky130_fd_sc_hd__dfrtn_1 abstract view
.subckt sky130_fd_sc_hd__dfrtn_1 CLK_N D RESET_B VGND VNB VPB VPWR Q
.ends

* Black-box entry subcircuit for sky130_fd_sc_hd__dlxtn_2 abstract view
.subckt sky130_fd_sc_hd__dlxtn_2 D GATE_N VGND VNB VPB VPWR Q
.ends

* Black-box entry subcircuit for sky130_fd_sc_hd__dlclkp_4 abstract view
.subckt sky130_fd_sc_hd__dlclkp_4 CLK GATE VGND VNB VPB VPWR GCLK
.ends

* Black-box entry subcircuit for sky130_fd_sc_hd__and2_4 abstract view
.subckt sky130_fd_sc_hd__and2_4 A B VGND VNB VPB VPWR X
.ends

* Black-box entry subcircuit for sky130_fd_sc_hd__a31o_1 abstract view
.subckt sky130_fd_sc_hd__a31o_1 A1 A2 A3 B1 VGND VNB VPB VPWR X
.ends

* Black-box entry subcircuit for sky130_fd_sc_hd__or2b_1 abstract view
.subckt sky130_fd_sc_hd__or2b_1 A B_N VGND VNB VPB VPWR X
.ends

* Black-box entry subcircuit for sky130_fd_sc_hd__or2_4 abstract view
.subckt sky130_fd_sc_hd__or2_4 A B VGND VNB VPB VPWR X
.ends

* Black-box entry subcircuit for sky130_fd_sc_hd__or2_2 abstract view
.subckt sky130_fd_sc_hd__or2_2 A B VGND VNB VPB VPWR X
.ends

* Black-box entry subcircuit for sky130_fd_sc_hd__a41o_4 abstract view
.subckt sky130_fd_sc_hd__a41o_4 A1 A2 A3 A4 B1 VGND VNB VPB VPWR X
.ends

* Black-box entry subcircuit for sky130_fd_sc_hd__a41oi_1 abstract view
.subckt sky130_fd_sc_hd__a41oi_1 A1 A2 A3 A4 B1 VGND VNB VPB VPWR Y
.ends

* Black-box entry subcircuit for sky130_fd_sc_hd__mux2_4 abstract view
.subckt sky130_fd_sc_hd__mux2_4 A0 A1 S VGND VNB VPB VPWR X
.ends

* Black-box entry subcircuit for sky130_fd_sc_hd__buf_2 abstract view
.subckt sky130_fd_sc_hd__buf_2 A VGND VNB VPB VPWR X
.ends

* Black-box entry subcircuit for sky130_fd_sc_hd__sdfbbp_1 abstract view
.subckt sky130_fd_sc_hd__sdfbbp_1 CLK D RESET_B SCD SCE SET_B VGND VNB VPB VPWR Q
+ Q_N
.ends

* Black-box entry subcircuit for sky130_fd_sc_hd__dfrtp_2 abstract view
.subckt sky130_fd_sc_hd__dfrtp_2 CLK D RESET_B VGND VNB VPB VPWR Q
.ends

* Black-box entry subcircuit for sky130_fd_sc_hd__dfxtp_2 abstract view
.subckt sky130_fd_sc_hd__dfxtp_2 CLK D VGND VNB VPB VPWR Q
.ends

* Black-box entry subcircuit for sky130_fd_sc_hd__dlxtn_4 abstract view
.subckt sky130_fd_sc_hd__dlxtn_4 D GATE_N VGND VNB VPB VPWR Q
.ends

* Black-box entry subcircuit for sky130_fd_sc_hd__dlxbn_1 abstract view
.subckt sky130_fd_sc_hd__dlxbn_1 D GATE_N VGND VNB VPB VPWR Q Q_N
.ends

* Black-box entry subcircuit for sky130_fd_sc_hd__o21ai_1 abstract view
.subckt sky130_fd_sc_hd__o21ai_1 A1 A2 B1 VGND VNB VPB VPWR Y
.ends

* Black-box entry subcircuit for sky130_fd_sc_hd__and2b_2 abstract view
.subckt sky130_fd_sc_hd__and2b_2 A_N B VGND VNB VPB VPWR X
.ends

* Black-box entry subcircuit for sky130_fd_sc_hd__a41o_2 abstract view
.subckt sky130_fd_sc_hd__a41o_2 A1 A2 A3 A4 B1 VGND VNB VPB VPWR X
.ends

* Black-box entry subcircuit for sky130_fd_sc_hd__sdfsbp_1 abstract view
.subckt sky130_fd_sc_hd__sdfsbp_1 CLK D SCD SCE SET_B VGND VNB VPB VPWR Q Q_N
.ends

* Black-box entry subcircuit for sky130_fd_sc_hd__o21ba_2 abstract view
.subckt sky130_fd_sc_hd__o21ba_2 A1 A2 B1_N VGND VNB VPB VPWR X
.ends

* Black-box entry subcircuit for sky130_fd_sc_hd__a21o_4 abstract view
.subckt sky130_fd_sc_hd__a21o_4 A1 A2 B1 VGND VNB VPB VPWR X
.ends

* Black-box entry subcircuit for sky130_fd_sc_hd__mux2_1 abstract view
.subckt sky130_fd_sc_hd__mux2_1 A0 A1 S VGND VNB VPB VPWR X
.ends

* Black-box entry subcircuit for sky130_fd_sc_hd__a31oi_1 abstract view
.subckt sky130_fd_sc_hd__a31oi_1 A1 A2 A3 B1 VGND VNB VPB VPWR Y
.ends

* Black-box entry subcircuit for sky130_fd_sc_hd__dlxtp_1 abstract view
.subckt sky130_fd_sc_hd__dlxtp_1 D GATE VGND VNB VPB VPWR Q
.ends

* Black-box entry subcircuit for sky130_fd_sc_hd__nand2b_2 abstract view
.subckt sky130_fd_sc_hd__nand2b_2 A_N B VGND VNB VPB VPWR Y
.ends

* Black-box entry subcircuit for sky130_fd_sc_hd__nor2b_4 abstract view
.subckt sky130_fd_sc_hd__nor2b_4 A B_N VGND VNB VPB VPWR Y
.ends

* Black-box entry subcircuit for sky130_fd_sc_hd__a21bo_1 abstract view
.subckt sky130_fd_sc_hd__a21bo_1 A1 A2 B1_N VGND VNB VPB VPWR X
.ends

* Black-box entry subcircuit for sky130_fd_sc_hd__inv_1 abstract view
.subckt sky130_fd_sc_hd__inv_1 A VGND VNB VPB VPWR Y
.ends

* Black-box entry subcircuit for sky130_fd_sc_hd__clkbuf_2 abstract view
.subckt sky130_fd_sc_hd__clkbuf_2 A VGND VNB VPB VPWR X
.ends

* Black-box entry subcircuit for sky130_fd_sc_hd__a31oi_2 abstract view
.subckt sky130_fd_sc_hd__a31oi_2 A1 A2 A3 B1 VGND VNB VPB VPWR Y
.ends

* Black-box entry subcircuit for sky130_fd_sc_hd__dfxtp_4 abstract view
.subckt sky130_fd_sc_hd__dfxtp_4 CLK D VGND VNB VPB VPWR Q
.ends

* Black-box entry subcircuit for sky130_fd_sc_hd__dlxbp_1 abstract view
.subckt sky130_fd_sc_hd__dlxbp_1 D GATE VGND VNB VPB VPWR Q Q_N
.ends

* Black-box entry subcircuit for sky130_fd_sc_hd__lpflow_inputisolatch_1 abstract view
.subckt sky130_fd_sc_hd__lpflow_inputisolatch_1 D SLEEP_B VGND VNB VPB VPWR Q
.ends

* Black-box entry subcircuit for sky130_fd_sc_hd__a31o_4 abstract view
.subckt sky130_fd_sc_hd__a31o_4 A1 A2 A3 B1 VGND VNB VPB VPWR X
.ends

* Black-box entry subcircuit for sky130_fd_sc_hd__xor2_2 abstract view
.subckt sky130_fd_sc_hd__xor2_2 A B VGND VNB VPB VPWR X
.ends

* Black-box entry subcircuit for sky130_fd_sc_hd__inv_6 abstract view
.subckt sky130_fd_sc_hd__inv_6 A VGND VNB VPB VPWR Y
.ends

* Black-box entry subcircuit for sky130_fd_sc_hd__o21a_1 abstract view
.subckt sky130_fd_sc_hd__o21a_1 A1 A2 B1 VGND VNB VPB VPWR X
.ends

* Black-box entry subcircuit for sky130_fd_sc_hd__nor2b_1 abstract view
.subckt sky130_fd_sc_hd__nor2b_1 A B_N VGND VNB VPB VPWR Y
.ends

* Black-box entry subcircuit for sky130_fd_sc_hd__a31oi_4 abstract view
.subckt sky130_fd_sc_hd__a31oi_4 A1 A2 A3 B1 VGND VNB VPB VPWR Y
.ends

* Black-box entry subcircuit for sky130_fd_sc_hd__nor2b_2 abstract view
.subckt sky130_fd_sc_hd__nor2b_2 A B_N VGND VNB VPB VPWR Y
.ends

* Black-box entry subcircuit for sky130_fd_sc_hd__dlclkp_1 abstract view
.subckt sky130_fd_sc_hd__dlclkp_1 CLK GATE VGND VNB VPB VPWR GCLK
.ends

* Black-box entry subcircuit for sky130_fd_sc_hd__clkinv_4 abstract view
.subckt sky130_fd_sc_hd__clkinv_4 A VGND VNB VPB VPWR Y
.ends

* Black-box entry subcircuit for sky130_fd_sc_hd__inv_2 abstract view
.subckt sky130_fd_sc_hd__inv_2 A VGND VNB VPB VPWR Y
.ends

* Black-box entry subcircuit for sky130_fd_sc_hd__sdfbbn_1 abstract view
.subckt sky130_fd_sc_hd__sdfbbn_1 CLK_N D RESET_B SCD SCE SET_B VGND VNB VPB VPWR
+ Q Q_N
.ends

* Black-box entry subcircuit for sky130_fd_sc_hd__xnor2_2 abstract view
.subckt sky130_fd_sc_hd__xnor2_2 A B VGND VNB VPB VPWR Y
.ends

* Black-box entry subcircuit for sky130_fd_sc_hd__nor2_2 abstract view
.subckt sky130_fd_sc_hd__nor2_2 A B VGND VNB VPB VPWR Y
.ends

* Black-box entry subcircuit for sky130_fd_sc_hd__or2b_4 abstract view
.subckt sky130_fd_sc_hd__or2b_4 A B_N VGND VNB VPB VPWR X
.ends

* Black-box entry subcircuit for sky130_fd_sc_hd__a21oi_2 abstract view
.subckt sky130_fd_sc_hd__a21oi_2 A1 A2 B1 VGND VNB VPB VPWR Y
.ends

* Black-box entry subcircuit for sky130_fd_sc_hd__dlxbn_2 abstract view
.subckt sky130_fd_sc_hd__dlxbn_2 D GATE_N VGND VNB VPB VPWR Q Q_N
.ends

* Black-box entry subcircuit for sky130_fd_sc_hd__o21bai_2 abstract view
.subckt sky130_fd_sc_hd__o21bai_2 A1 A2 B1_N VGND VNB VPB VPWR Y
.ends

* Black-box entry subcircuit for sky130_fd_sc_hd__a21o_2 abstract view
.subckt sky130_fd_sc_hd__a21o_2 A1 A2 B1 VGND VNB VPB VPWR X
.ends

* Black-box entry subcircuit for sky130_fd_sc_hd__o21ba_4 abstract view
.subckt sky130_fd_sc_hd__o21ba_4 A1 A2 B1_N VGND VNB VPB VPWR X
.ends

* Black-box entry subcircuit for sky130_fd_sc_hd__nand2_2 abstract view
.subckt sky130_fd_sc_hd__nand2_2 A B VGND VNB VPB VPWR Y
.ends

* Black-box entry subcircuit for sky130_fd_sc_hd__o21ba_1 abstract view
.subckt sky130_fd_sc_hd__o21ba_1 A1 A2 B1_N VGND VNB VPB VPWR X
.ends

* Black-box entry subcircuit for sky130_fd_sc_hd__sdfrtn_1 abstract view
.subckt sky130_fd_sc_hd__sdfrtn_1 CLK_N D RESET_B SCD SCE VGND VNB VPB VPWR Q
.ends

* Black-box entry subcircuit for sky130_fd_sc_hd__a21boi_4 abstract view
.subckt sky130_fd_sc_hd__a21boi_4 A1 A2 B1_N VGND VNB VPB VPWR Y
.ends

* Black-box entry subcircuit for sky130_fd_sc_hd__dfrbp_2 abstract view
.subckt sky130_fd_sc_hd__dfrbp_2 CLK D RESET_B VGND VNB VPB VPWR Q Q_N
.ends

* Black-box entry subcircuit for sky130_fd_sc_hd__o21bai_4 abstract view
.subckt sky130_fd_sc_hd__o21bai_4 A1 A2 B1_N VGND VNB VPB VPWR Y
.ends

* Black-box entry subcircuit for sky130_fd_sc_hd__o21ai_2 abstract view
.subckt sky130_fd_sc_hd__o21ai_2 A1 A2 B1 VGND VNB VPB VPWR Y
.ends

* Black-box entry subcircuit for sky130_fd_sc_hd__dlrtn_2 abstract view
.subckt sky130_fd_sc_hd__dlrtn_2 D GATE_N RESET_B VGND VNB VPB VPWR Q
.ends

* Black-box entry subcircuit for sky130_fd_sc_hd__o21ai_0 abstract view
.subckt sky130_fd_sc_hd__o21ai_0 A1 A2 B1 VGND VNB VPB VPWR Y
.ends

* Black-box entry subcircuit for sky130_fd_sc_hd__a21boi_0 abstract view
.subckt sky130_fd_sc_hd__a21boi_0 A1 A2 B1_N VGND VNB VPB VPWR Y
.ends

* Black-box entry subcircuit for sky130_fd_sc_hd__a21boi_2 abstract view
.subckt sky130_fd_sc_hd__a21boi_2 A1 A2 B1_N VGND VNB VPB VPWR Y
.ends

* Black-box entry subcircuit for sky130_fd_sc_hd__buf_1 abstract view
.subckt sky130_fd_sc_hd__buf_1 A VGND VNB VPB VPWR X
.ends

* Black-box entry subcircuit for sky130_fd_sc_hd__dlrtp_1 abstract view
.subckt sky130_fd_sc_hd__dlrtp_1 D GATE RESET_B VGND VNB VPB VPWR Q
.ends

* Black-box entry subcircuit for sky130_fd_sc_hd__dfsbp_2 abstract view
.subckt sky130_fd_sc_hd__dfsbp_2 CLK D SET_B VGND VNB VPB VPWR Q Q_N
.ends

* Black-box entry subcircuit for sky130_fd_sc_hd__nand2_1 abstract view
.subckt sky130_fd_sc_hd__nand2_1 A B VGND VNB VPB VPWR Y
.ends

* Black-box entry subcircuit for sky130_fd_sc_hd__inv_8 abstract view
.subckt sky130_fd_sc_hd__inv_8 A VGND VNB VPB VPWR Y
.ends

* Black-box entry subcircuit for sky130_fd_sc_hd__a21o_1 abstract view
.subckt sky130_fd_sc_hd__a21o_1 A1 A2 B1 VGND VNB VPB VPWR X
.ends

* Black-box entry subcircuit for sky130_fd_sc_hd__a21bo_4 abstract view
.subckt sky130_fd_sc_hd__a21bo_4 A1 A2 B1_N VGND VNB VPB VPWR X
.ends

* Black-box entry subcircuit for sky130_fd_sc_hd__mux2_2 abstract view
.subckt sky130_fd_sc_hd__mux2_2 A0 A1 S VGND VNB VPB VPWR X
.ends

* Black-box entry subcircuit for sky130_fd_sc_hd__dfstp_2 abstract view
.subckt sky130_fd_sc_hd__dfstp_2 CLK D SET_B VGND VNB VPB VPWR Q
.ends

* Black-box entry subcircuit for sky130_fd_sc_hd__dlrtp_2 abstract view
.subckt sky130_fd_sc_hd__dlrtp_2 D GATE RESET_B VGND VNB VPB VPWR Q
.ends

* Black-box entry subcircuit for sky130_fd_sc_hd__or2b_2 abstract view
.subckt sky130_fd_sc_hd__or2b_2 A B_N VGND VNB VPB VPWR X
.ends

* Black-box entry subcircuit for sky130_fd_sc_hd__dfstp_4 abstract view
.subckt sky130_fd_sc_hd__dfstp_4 CLK D SET_B VGND VNB VPB VPWR Q
.ends

* Black-box entry subcircuit for sky130_fd_sc_hd__dlrtp_4 abstract view
.subckt sky130_fd_sc_hd__dlrtp_4 D GATE RESET_B VGND VNB VPB VPWR Q
.ends

* Black-box entry subcircuit for sky130_fd_sc_hd__a21oi_1 abstract view
.subckt sky130_fd_sc_hd__a21oi_1 A1 A2 B1 VGND VNB VPB VPWR Y
.ends

* Black-box entry subcircuit for sky130_fd_sc_hd__and2b_4 abstract view
.subckt sky130_fd_sc_hd__and2b_4 A_N B VGND VNB VPB VPWR X
.ends

* Black-box entry subcircuit for sky130_fd_sc_hd__buf_8 abstract view
.subckt sky130_fd_sc_hd__buf_8 A VGND VNB VPB VPWR X
.ends

* Black-box entry subcircuit for sky130_fd_sc_hd__a31o_2 abstract view
.subckt sky130_fd_sc_hd__a31o_2 A1 A2 A3 B1 VGND VNB VPB VPWR X
.ends

* Black-box entry subcircuit for sky130_fd_sc_hd__dfstp_1 abstract view
.subckt sky130_fd_sc_hd__dfstp_1 CLK D SET_B VGND VNB VPB VPWR Q
.ends

* Black-box entry subcircuit for sky130_fd_sc_hd__edfxbp_1 abstract view
.subckt sky130_fd_sc_hd__edfxbp_1 CLK D DE VGND VNB VPB VPWR Q Q_N
.ends

* Black-box entry subcircuit for sky130_fd_sc_hd__buf_16 abstract view
.subckt sky130_fd_sc_hd__buf_16 A VGND VNB VPB VPWR X
.ends

* Black-box entry subcircuit for sky130_fd_sc_hd__mux2_8 abstract view
.subckt sky130_fd_sc_hd__mux2_8 A0 A1 S VGND VNB VPB VPWR X
.ends

* Black-box entry subcircuit for sky130_fd_sc_hd__dlrbn_1 abstract view
.subckt sky130_fd_sc_hd__dlrbn_1 D GATE_N RESET_B VGND VNB VPB VPWR Q Q_N
.ends

* Black-box entry subcircuit for sky130_fd_sc_hd__edfxtp_1 abstract view
.subckt sky130_fd_sc_hd__edfxtp_1 CLK D DE VGND VNB VPB VPWR Q
.ends

* Black-box entry subcircuit for sky130_fd_sc_hd__dlymetal6s2s_1 abstract view
.subckt sky130_fd_sc_hd__dlymetal6s2s_1 A VGND VNB VPB VPWR X
.ends

* Black-box entry subcircuit for sky130_fd_sc_hd__sdlclkp_1 abstract view
.subckt sky130_fd_sc_hd__sdlclkp_1 CLK GATE SCE VGND VNB VPB VPWR GCLK
.ends

* Black-box entry subcircuit for sky130_fd_sc_hd__nand2_8 abstract view
.subckt sky130_fd_sc_hd__nand2_8 A B VGND VNB VPB VPWR Y
.ends

* Black-box entry subcircuit for sky130_fd_sc_hd__inv_4 abstract view
.subckt sky130_fd_sc_hd__inv_4 A VGND VNB VPB VPWR Y
.ends

* Black-box entry subcircuit for sky130_fd_sc_hd__sdlclkp_2 abstract view
.subckt sky130_fd_sc_hd__sdlclkp_2 CLK GATE SCE VGND VNB VPB VPWR GCLK
.ends

* Black-box entry subcircuit for sky130_fd_sc_hd__dlrbp_2 abstract view
.subckt sky130_fd_sc_hd__dlrbp_2 D GATE RESET_B VGND VNB VPB VPWR Q Q_N
.ends

* Black-box entry subcircuit for sky130_fd_sc_hd__a21boi_1 abstract view
.subckt sky130_fd_sc_hd__a21boi_1 A1 A2 B1_N VGND VNB VPB VPWR Y
.ends

* Black-box entry subcircuit for sky130_fd_sc_hd__dlrbp_1 abstract view
.subckt sky130_fd_sc_hd__dlrbp_1 D GATE RESET_B VGND VNB VPB VPWR Q Q_N
.ends

* Black-box entry subcircuit for sky130_fd_sc_hd__sdlclkp_4 abstract view
.subckt sky130_fd_sc_hd__sdlclkp_4 CLK GATE SCE VGND VNB VPB VPWR GCLK
.ends

* Black-box entry subcircuit for sky130_fd_sc_hd__sdfrbp_2 abstract view
.subckt sky130_fd_sc_hd__sdfrbp_2 CLK D RESET_B SCD SCE VGND VNB VPB VPWR Q Q_N
.ends

* Black-box entry subcircuit for sky130_fd_sc_hd__sdfstp_2 abstract view
.subckt sky130_fd_sc_hd__sdfstp_2 CLK D SCD SCE SET_B VGND VNB VPB VPWR Q
.ends

* Black-box entry subcircuit for sky130_fd_sc_hd__dfrbp_1 abstract view
.subckt sky130_fd_sc_hd__dfrbp_1 CLK D RESET_B VGND VNB VPB VPWR Q Q_N
.ends

* Black-box entry subcircuit for sky130_fd_sc_hd__sdfrtp_2 abstract view
.subckt sky130_fd_sc_hd__sdfrtp_2 CLK D RESET_B SCD SCE VGND VNB VPB VPWR Q
.ends

* Black-box entry subcircuit for sky130_fd_sc_hd__dfrtp_4 abstract view
.subckt sky130_fd_sc_hd__dfrtp_4 CLK D RESET_B VGND VNB VPB VPWR Q
.ends

* Black-box entry subcircuit for sky130_fd_sc_hd__sdfrtp_4 abstract view
.subckt sky130_fd_sc_hd__sdfrtp_4 CLK D RESET_B SCD SCE VGND VNB VPB VPWR Q
.ends

* Black-box entry subcircuit for sky130_fd_sc_hd__dfsbp_1 abstract view
.subckt sky130_fd_sc_hd__dfsbp_1 CLK D SET_B VGND VNB VPB VPWR Q Q_N
.ends

* Black-box entry subcircuit for sky130_fd_sc_hd__nor2_4 abstract view
.subckt sky130_fd_sc_hd__nor2_4 A B VGND VNB VPB VPWR Y
.ends

* Black-box entry subcircuit for sky130_fd_sc_hd__nand2b_4 abstract view
.subckt sky130_fd_sc_hd__nand2b_4 A_N B VGND VNB VPB VPWR Y
.ends

* Black-box entry subcircuit for sky130_fd_sc_hd__dlrtn_1 abstract view
.subckt sky130_fd_sc_hd__dlrtn_1 D GATE_N RESET_B VGND VNB VPB VPWR Q
.ends

* Black-box entry subcircuit for sky130_fd_sc_hd__inv_12 abstract view
.subckt sky130_fd_sc_hd__inv_12 A VGND VNB VPB VPWR Y
.ends

* Black-box entry subcircuit for sky130_fd_sc_hd__dlrtn_4 abstract view
.subckt sky130_fd_sc_hd__dlrtn_4 D GATE_N RESET_B VGND VNB VPB VPWR Q
.ends

* Black-box entry subcircuit for sky130_fd_sc_hd__dfxtp_1 abstract view
.subckt sky130_fd_sc_hd__dfxtp_1 CLK D VGND VNB VPB VPWR Q
.ends

* Black-box entry subcircuit for sky130_fd_sc_hd__and2_1 abstract view
.subckt sky130_fd_sc_hd__and2_1 A B VGND VNB VPB VPWR X
.ends

* Black-box entry subcircuit for sky130_fd_sc_hd__nor2_1 abstract view
.subckt sky130_fd_sc_hd__nor2_1 A B VGND VNB VPB VPWR Y
.ends

.subckt netlist_0 VGND VPWR clk in0 in1 in10 in11 in12 in13 in14 in15 in16 in17 in18
+ in19 in2 in20 in21 in22 in23 in24 in25 in26 in27 in28 in29 in3 in30 in31 in32 in33
+ in34 in35 in36 in37 in38 in39 in4 in40 in41 in42 in43 in44 in45 in46 in47 in48 in49
+ in5 in50 in51 in52 in53 in54 in55 in56 in57 in58 in59 in6 in60 in61 in7 in8 in9
+ out0 out1 out10 out11 out12 out13 out14 out15 out16 out17 out18 out19 out2 out20
+ out21 out22 out23 out24 out25 out26 out27 out28 out29 out3 out30 out31 out32 out33
+ out34 out35 out36 out37 out38 out39 out4 out40 out41 out42 out43 out44 out45 out46
+ out47 out48 out49 out5 out50 out51 out52 out53 out54 out55 out56 out57 out58 out59
+ out6 out60 out61 out7 out8 out9 rst
XFILLER_0_94_77 VGND VGND VPWR VPWR sky130_fd_sc_hd__decap_6
XFILLER_0_27_93 VGND VGND VPWR VPWR sky130_fd_sc_hd__decap_8
Xclkbuf_1_1__f_net292 clknet_0_net292 VGND VGND VPWR VPWR clknet_1_1__leaf_net292
+ sky130_fd_sc_hd__clkbuf_16
XANTENNA_c249_B1 net974 VGND VGND VPWR VPWR sky130_fd_sc_hd__diode_2
XANTENNA_merge817_A2 net947 VGND VGND VPWR VPWR sky130_fd_sc_hd__diode_2
XFILLER_0_43_81 VGND VGND VPWR VPWR sky130_fd_sc_hd__decap_8
XFILLER_0_91_125 VPWR VGND VPWR VGND sky130_ef_sc_hd__decap_12
XFILLER_0_91_169 VPWR VGND VPWR VGND sky130_ef_sc_hd__decap_12
XFILLER_0_72_361 VGND VGND VPWR VPWR sky130_fd_sc_hd__decap_3
XFILLER_0_60_545 VPWR VGND VPWR VGND sky130_ef_sc_hd__decap_12
Xc327 net249 net258 net947 net974 net783 net800 VGND VGND VPWR VPWR net262 sky130_fd_sc_hd__mux4_1
Xc316 net249 net247 VGND VGND VPWR VPWR net251 sky130_fd_sc_hd__xor2_4
Xc305 clknet_4_2_0_clk net234 net239 net229 net954 net781 VGND VGND VPWR VPWR net241
+ net240 sky130_fd_sc_hd__sdfbbn_2
XFILLER_0_60_589 VPWR VGND VPWR VGND sky130_ef_sc_hd__decap_12
XFILLER_0_7_81 VPWR VGND VPWR VGND sky130_ef_sc_hd__decap_12
Xc338 net765 VGND VGND VPWR VPWR net274 sky130_fd_sc_hd__clkbuf_1
Xc349 net6 net277 net971 net278 net273 net729 VGND VGND VPWR VPWR net284 sky130_fd_sc_hd__mux4_1
XFILLER_0_99_225 VPWR VGND VPWR VGND sky130_ef_sc_hd__decap_12
XFILLER_0_68_601 VPWR VGND VPWR VGND sky130_ef_sc_hd__decap_12
XFILLER_0_95_442 VGND VGND VPWR VPWR sky130_fd_sc_hd__decap_6
XFILLER_0_83_615 VGND VGND VPWR VPWR sky130_fd_sc_hd__fill_1
XFILLER_0_67_177 VGND VGND VPWR VPWR sky130_fd_sc_hd__fill_2
Xmerge837 net449 net450 VGND VGND VPWR VPWR net702 sky130_fd_sc_hd__xor2_1
Xmerge804 net223 net224 net214 net228 net963 VGND VGND VPWR VPWR net668 sky130_fd_sc_hd__a41o_1
Xmerge815 net868 net947 net12 net311 net68 net763 VGND VGND VPWR VPWR net679 sky130_fd_sc_hd__mux4_1
Xmerge826 net426 net429 VGND VGND VPWR VPWR net690 sky130_fd_sc_hd__xnor2_4
XFILLER_0_55_317 VPWR VGND VPWR VGND sky130_ef_sc_hd__decap_12
XFILLER_0_95_497 VGND VGND VPWR VPWR sky130_fd_sc_hd__decap_6
Xs943 clknet_4_12_0_clk net589 VGND VGND VPWR VPWR net815 sky130_fd_sc_hd__dlclkp_2
Xs921 clknet_4_4_0_clk net58 VGND VGND VPWR VPWR net790 net789 sky130_fd_sc_hd__dfxbp_1
Xmerge848 net255 net261 VGND VGND VPWR VPWR net712 sky130_fd_sc_hd__xnor2_1
Xs932 net376 clknet_4_9_0_clk VGND VGND VPWR VPWR net803 sky130_fd_sc_hd__dlxtn_1
Xmerge859 net535 net321 VGND VGND VPWR VPWR net724 sky130_fd_sc_hd__xor2_1
XTAP_TAPCELL_ROW_11_345 VGND VPWR sky130_fd_sc_hd__tapvpwrvgnd_1
XFILLER_0_3_609 VGND VGND VPWR VPWR sky130_fd_sc_hd__decap_6
XFILLER_0_36_586 VGND VGND VPWR VPWR sky130_fd_sc_hd__fill_2
XFILLER_0_51_501 VGND VGND VPWR VPWR sky130_fd_sc_hd__decap_3
Xrebuffer7 net15 VGND VGND VPWR VPWR net984 sky130_fd_sc_hd__dlygate4sd1_1
XFILLER_0_23_236 VPWR VGND VPWR VGND sky130_ef_sc_hd__decap_12
XANTENNA_c606_A1 net905 VGND VGND VPWR VPWR sky130_fd_sc_hd__diode_2
XTAP_TAPCELL_ROW_97_1288 VGND VPWR sky130_fd_sc_hd__tapvpwrvgnd_1
XFILLER_0_48_15 VPWR VGND VPWR VGND sky130_ef_sc_hd__decap_12
XANTENNA_c622_A0 net1047 VGND VGND VPWR VPWR sky130_fd_sc_hd__diode_2
XFILLER_0_3_39 VPWR VGND VPWR VGND sky130_ef_sc_hd__decap_12
XTAP_TAPCELL_ROW_47_732 VGND VPWR sky130_fd_sc_hd__tapvpwrvgnd_1
XTAP_TAPCELL_ROW_19_434 VGND VPWR sky130_fd_sc_hd__tapvpwrvgnd_1
XFILLER_0_13_51 VGND VGND VPWR VPWR sky130_fd_sc_hd__decap_4
XFILLER_0_73_169 VPWR VGND VPWR VGND sky130_ef_sc_hd__decap_12
XFILLER_0_73_158 VGND VGND VPWR VPWR sky130_fd_sc_hd__decap_8
XFILLER_0_39_391 VGND VGND VPWR VPWR sky130_fd_sc_hd__fill_1
XFILLER_0_54_350 VPWR VGND VPWR VGND sky130_ef_sc_hd__decap_12
XFILLER_0_14_247 VGND VGND VPWR VPWR sky130_fd_sc_hd__fill_1
XFILLER_0_42_589 VPWR VGND VPWR VGND sky130_ef_sc_hd__decap_12
XANTENNA_clkbuf_0_net394_A net394 VGND VGND VPWR VPWR sky130_fd_sc_hd__diode_2
XTAP_TAPCELL_ROW_74_1030 VGND VPWR sky130_fd_sc_hd__tapvpwrvgnd_1
XFILLER_0_1_185 VGND VGND VPWR VPWR sky130_fd_sc_hd__fill_1
Xfanout127 net130 VGND VGND VPWR VPWR net952 sky130_fd_sc_hd__buf_4
Xfanout138 net83 VGND VGND VPWR VPWR net963 sky130_fd_sc_hd__buf_6
Xfanout149 net863 VGND VGND VPWR VPWR net974 sky130_fd_sc_hd__buf_12
XFILLER_0_65_615 VGND VGND VPWR VPWR sky130_fd_sc_hd__fill_1
XFILLER_0_77_497 VGND VGND VPWR VPWR sky130_fd_sc_hd__decap_6
XFILLER_0_64_125 VGND VGND VPWR VPWR sky130_fd_sc_hd__decap_4
XFILLER_0_37_317 VPWR VGND VPWR VGND sky130_ef_sc_hd__decap_12
XFILLER_0_18_531 VGND VGND VPWR VPWR sky130_fd_sc_hd__fill_1
XFILLER_0_52_309 VGND VGND VPWR VPWR sky130_fd_sc_hd__decap_4
XFILLER_0_92_489 VPWR VGND VPWR VGND sky130_ef_sc_hd__decap_12
XFILLER_0_18_575 VPWR VGND VPWR VGND sky130_ef_sc_hd__decap_12
XFILLER_0_33_545 VPWR VGND VPWR VGND sky130_ef_sc_hd__decap_12
XFILLER_0_5_491 VGND VGND VPWR VPWR sky130_fd_sc_hd__fill_2
Xc102 net27 net850 VGND VGND VPWR VPWR net40 sky130_fd_sc_hd__and2b_1
Xc124 net53 net59 VGND VGND VPWR VPWR net61 sky130_fd_sc_hd__nand2b_1
Xc113 net865 net870 net833 VGND VGND VPWR VPWR net51 sky130_fd_sc_hd__o21bai_1
Xc135 net871 net71 net828 VGND VGND VPWR VPWR net72 sky130_fd_sc_hd__o21ai_4
Xc168 net102 net1042 net842 VGND VGND VPWR VPWR net105 sky130_fd_sc_hd__a21oi_4
Xc157 net887 net975 net80 net73 net74 VGND VGND VPWR VPWR net94 sky130_fd_sc_hd__a41oi_4
Xc146 net82 net79 VGND VGND VPWR VPWR net83 sky130_fd_sc_hd__nand2_4
Xc179 net830 net3 VGND VGND VPWR VPWR net116 sky130_fd_sc_hd__or2_1
XFILLER_0_18_29 VPWR VGND VPWR VGND sky130_ef_sc_hd__decap_12
XFILLER_0_87_239 VGND VGND VPWR VPWR sky130_fd_sc_hd__fill_2
XTAP_TAPCELL_ROW_44_702 VGND VPWR sky130_fd_sc_hd__tapvpwrvgnd_1
XFILLER_0_95_261 VPWR VGND VPWR VGND sky130_ef_sc_hd__decap_12
XTAP_TAPCELL_ROW_99_1306 VGND VPWR sky130_fd_sc_hd__tapvpwrvgnd_1
XTAP_TAPCELL_ROW_24_481 VGND VPWR sky130_fd_sc_hd__tapvpwrvgnd_1
XFILLER_0_50_27 VGND VGND VPWR VPWR sky130_fd_sc_hd__fill_1
XTAP_TAPCELL_ROW_52_790 VGND VPWR sky130_fd_sc_hd__tapvpwrvgnd_1
XANTENNA_c678_S0 net334 VGND VGND VPWR VPWR sky130_fd_sc_hd__diode_2
XFILLER_0_24_501 VPWR VGND VPWR VGND sky130_ef_sc_hd__decap_12
XFILLER_0_70_139 VGND VGND VPWR VPWR sky130_fd_sc_hd__fill_1
XFILLER_0_24_545 VGND VGND VPWR VPWR sky130_fd_sc_hd__decap_3
XFILLER_0_24_589 VPWR VGND VPWR VGND sky130_ef_sc_hd__decap_12
XFILLER_0_11_217 VGND VGND VPWR VPWR sky130_fd_sc_hd__decap_6
XFILLER_0_51_386 VGND VGND VPWR VPWR sky130_fd_sc_hd__decap_6
XFILLER_0_59_69 VGND VGND VPWR VPWR sky130_fd_sc_hd__fill_2
Xc680 net549 net545 net552 net207 net555 clknet_1_0__leaf_net784 VGND VGND VPWR VPWR
+ net562 sky130_fd_sc_hd__mux4_4
Xc691 net564 net556 clknet_1_0__leaf_net902 VGND VGND VPWR VPWR net575 sky130_fd_sc_hd__a21bo_2
XANTENNA_c352_B1 net33 VGND VGND VPWR VPWR sky130_fd_sc_hd__diode_2
XANTENNA_max_cap130_X net955 VGND VGND VPWR VPWR sky130_fd_sc_hd__diode_2
XFILLER_0_75_57 VPWR VGND VPWR VGND sky130_ef_sc_hd__decap_12
XANTENNA_s938_CLK clknet_4_15_0_clk VGND VGND VPWR VPWR sky130_fd_sc_hd__diode_2
XFILLER_0_47_615 VGND VGND VPWR VPWR sky130_fd_sc_hd__fill_1
XFILLER_0_59_453 VGND VGND VPWR VPWR sky130_fd_sc_hd__fill_1
XFILLER_0_74_412 VGND VGND VPWR VPWR sky130_fd_sc_hd__decap_8
XFILLER_0_24_83 VGND VGND VPWR VPWR sky130_fd_sc_hd__fill_1
XFILLER_0_74_489 VPWR VGND VPWR VGND sky130_ef_sc_hd__decap_12
XANTENNA_c588_S0 net469 VGND VGND VPWR VPWR sky130_fd_sc_hd__diode_2