*SPEF "ieee 1481-1999"
*DESIGN "netlist_0"
*DATE "23:22:08 Saturday July 20, 2024"
*VENDOR "The OpenROAD Project"
*PROGRAM "OpenROAD"
*VERSION "d423155d69de7f683a23f6916ead418a615ad4ad"
*DESIGN_FLOW "NAME_SCOPE LOCAL" "PIN_CAP NONE"
*DIVIDER /
*DELIMITER :
*BUS_DELIMITER []
*T_UNIT 1 NS
*C_UNIT 1 PF
*R_UNIT 1 OHM
*L_UNIT 1 HENRY

*NAME_MAP
*3 clk
*4 in0
*5 in1
*6 in10
*7 in11
*8 in12
*9 in13
*10 in14
*11 in15
*12 in16
*13 in17
*14 in18
*15 in19
*16 in2
*17 in20
*18 in21
*19 in22
*20 in23
*21 in24
*22 in25
*23 in26
*24 in27
*25 in28
*26 in29
*27 in3
*28 in30
*29 in31
*30 in32
*31 in33
*32 in34
*33 in35
*34 in36
*35 in37
*36 in38
*37 in39
*38 in4
*39 in40
*40 in41
*41 in42
*42 in43
*43 in44
*44 in45
*45 in46
*46 in47
*47 in48
*48 in49
*49 in5
*50 in50
*51 in51
*52 in52
*53 in53
*54 in54
*55 in55
*56 in56
*57 in57
*58 in58
*59 in59
*60 in6
*61 in60
*62 in61
*63 in7
*64 in8
*65 in9
*66 out0
*67 out1
*68 out10
*69 out11
*70 out12
*71 out13
*72 out14
*73 out15
*74 out16
*75 out17
*76 out18
*77 out19
*78 out2
*79 out20
*80 out21
*81 out22
*82 out23
*83 out24
*84 out25
*85 out26
*86 out27
*87 out28
*88 out29
*89 out3
*90 out30
*91 out31
*92 out32
*93 out33
*94 out34
*95 out35
*96 out36
*97 out37
*98 out38
*99 out39
*100 out4
*101 out40
*102 out41
*103 out42
*104 out43
*105 out44
*106 out45
*107 out46
*108 out47
*109 out48
*110 out49
*111 out5
*112 out50
*113 out51
*114 out52
*115 out53
*116 out54
*117 out55
*118 out56
*119 out57
*120 out58
*121 out59
*122 out6
*123 out60
*124 out61
*125 out7
*126 out8
*127 out9
*128 rst
*129 clknet_0_clk
*130 clknet_0_net127
*131 clknet_0_net129
*132 clknet_0_net131
*133 clknet_0_net145
*134 clknet_0_net152
*135 clknet_0_net238
*136 clknet_0_net242
*137 clknet_0_net245
*138 clknet_0_net249
*139 clknet_0_net250
*140 clknet_0_net251
*141 clknet_0_net252
*142 clknet_0_net253
*143 clknet_0_net255
*144 clknet_0_net256
*145 clknet_0_net263
*146 clknet_0_net264
*147 clknet_0_net267
*148 clknet_0_net268
*149 clknet_0_net271
*150 clknet_0_net273
*151 clknet_0_net280
*152 clknet_0_net290
*153 clknet_0_net296
*154 clknet_0_net300
*155 clknet_0_net352
*156 clknet_0_net355
*157 clknet_0_net366
*158 clknet_0_net371
*159 clknet_0_net375
*160 clknet_0_net377
*161 clknet_0_net378
*162 clknet_0_net381
*163 clknet_0_net391
*164 clknet_0_net396
*165 clknet_0_net401
*166 clknet_0_net402
*167 clknet_0_net403
*168 clknet_0_net412
*169 clknet_0_net464
*170 clknet_0_net465
*171 clknet_0_net470
*172 clknet_0_net473
*173 clknet_0_net480
*174 clknet_0_net485
*175 clknet_0_net493
*176 clknet_0_net510
*177 clknet_0_net522
*178 clknet_0_net524
*179 clknet_0_net525
*180 clknet_0_net553
*181 clknet_0_net577
*182 clknet_0_net580
*183 clknet_0_net581
*184 clknet_0_net582
*185 clknet_0_net589
*186 clknet_0_net598
*187 clknet_0_net615
*188 clknet_0_net619
*189 clknet_0_net629
*190 clknet_0_net632
*191 clknet_0_net635
*192 clknet_0_net652
*193 clknet_0_net653
*194 clknet_0_net654
*195 clknet_0_net669
*196 clknet_0_net670
*197 clknet_0_net683
*198 clknet_0_net736
*199 clknet_0_net805
*200 clknet_0_net807
*201 clknet_0_net813
*202 clknet_0_net818
*203 clknet_0_net821
*204 clknet_0_net824
*205 clknet_0_net830
*206 clknet_0_net833
*207 clknet_0_net834
*208 clknet_0_net835
*209 clknet_0_net845
*210 clknet_0_net859
*211 clknet_0_net860
*212 clknet_0_net862
*213 clknet_1_0__leaf_net127
*214 clknet_1_0__leaf_net129
*215 clknet_1_0__leaf_net131
*216 clknet_1_0__leaf_net145
*217 clknet_1_0__leaf_net152
*218 clknet_1_0__leaf_net238
*219 clknet_1_0__leaf_net242
*220 clknet_1_0__leaf_net245
*221 clknet_1_0__leaf_net249
*222 clknet_1_0__leaf_net250
*223 clknet_1_0__leaf_net251
*224 clknet_1_0__leaf_net252
*225 clknet_1_0__leaf_net253
*226 clknet_1_0__leaf_net255
*227 clknet_1_0__leaf_net256
*228 clknet_1_0__leaf_net263
*229 clknet_1_0__leaf_net264
*230 clknet_1_0__leaf_net267
*231 clknet_1_0__leaf_net268
*232 clknet_1_0__leaf_net271
*233 clknet_1_0__leaf_net273
*234 clknet_1_0__leaf_net280
*235 clknet_1_0__leaf_net290
*236 clknet_1_0__leaf_net296
*237 clknet_1_0__leaf_net300
*238 clknet_1_0__leaf_net352
*239 clknet_1_0__leaf_net355
*240 clknet_1_0__leaf_net366
*241 clknet_1_0__leaf_net371
*242 clknet_1_0__leaf_net375
*243 clknet_1_0__leaf_net377
*244 clknet_1_0__leaf_net378
*245 clknet_1_0__leaf_net381
*246 clknet_1_0__leaf_net391
*247 clknet_1_0__leaf_net396
*248 clknet_1_0__leaf_net401
*249 clknet_1_0__leaf_net402
*250 clknet_1_0__leaf_net403
*251 clknet_1_0__leaf_net412
*252 clknet_1_0__leaf_net464
*253 clknet_1_0__leaf_net465
*254 clknet_1_0__leaf_net470
*255 clknet_1_0__leaf_net473
*256 clknet_1_0__leaf_net480
*257 clknet_1_0__leaf_net485
*258 clknet_1_0__leaf_net493
*259 clknet_1_0__leaf_net510
*260 clknet_1_0__leaf_net522
*261 clknet_1_0__leaf_net524
*262 clknet_1_0__leaf_net525
*263 clknet_1_0__leaf_net553
*264 clknet_1_0__leaf_net577
*265 clknet_1_0__leaf_net580
*266 clknet_1_0__leaf_net581
*267 clknet_1_0__leaf_net582
*268 clknet_1_0__leaf_net589
*269 clknet_1_0__leaf_net598
*270 clknet_1_0__leaf_net615
*271 clknet_1_0__leaf_net619
*272 clknet_1_0__leaf_net629
*273 clknet_1_0__leaf_net632
*274 clknet_1_0__leaf_net635
*275 clknet_1_0__leaf_net652
*276 clknet_1_0__leaf_net653
*277 clknet_1_0__leaf_net654
*278 clknet_1_0__leaf_net669
*279 clknet_1_0__leaf_net670
*280 clknet_1_0__leaf_net683
*281 clknet_1_0__leaf_net736
*282 clknet_1_0__leaf_net805
*283 clknet_1_0__leaf_net807
*284 clknet_1_0__leaf_net813
*285 clknet_1_0__leaf_net818
*286 clknet_1_0__leaf_net821
*287 clknet_1_0__leaf_net824
*288 clknet_1_0__leaf_net830
*289 clknet_1_0__leaf_net833
*290 clknet_1_0__leaf_net834
*291 clknet_1_0__leaf_net835
*292 clknet_1_0__leaf_net845
*293 clknet_1_0__leaf_net859
*294 clknet_1_0__leaf_net860
*295 clknet_1_0__leaf_net862
*296 clknet_1_1__leaf_net127
*297 clknet_1_1__leaf_net129
*298 clknet_1_1__leaf_net131
*299 clknet_1_1__leaf_net145
*300 clknet_1_1__leaf_net152
*301 clknet_1_1__leaf_net238
*302 clknet_1_1__leaf_net242
*303 clknet_1_1__leaf_net245
*304 clknet_1_1__leaf_net249
*305 clknet_1_1__leaf_net250
*306 clknet_1_1__leaf_net251
*307 clknet_1_1__leaf_net252
*308 clknet_1_1__leaf_net253
*309 clknet_1_1__leaf_net255
*310 clknet_1_1__leaf_net256
*311 clknet_1_1__leaf_net263
*312 clknet_1_1__leaf_net264
*313 clknet_1_1__leaf_net267
*314 clknet_1_1__leaf_net268
*315 clknet_1_1__leaf_net271
*316 clknet_1_1__leaf_net273
*317 clknet_1_1__leaf_net280
*318 clknet_1_1__leaf_net290
*319 clknet_1_1__leaf_net296
*320 clknet_1_1__leaf_net300
*321 clknet_1_1__leaf_net352
*322 clknet_1_1__leaf_net355
*323 clknet_1_1__leaf_net366
*324 clknet_1_1__leaf_net371
*325 clknet_1_1__leaf_net375
*326 clknet_1_1__leaf_net377
*327 clknet_1_1__leaf_net378
*328 clknet_1_1__leaf_net381
*329 clknet_1_1__leaf_net391
*330 clknet_1_1__leaf_net396
*331 clknet_1_1__leaf_net401
*332 clknet_1_1__leaf_net402
*333 clknet_1_1__leaf_net403
*334 clknet_1_1__leaf_net412
*335 clknet_1_1__leaf_net464
*336 clknet_1_1__leaf_net465
*337 clknet_1_1__leaf_net470
*338 clknet_1_1__leaf_net473
*339 clknet_1_1__leaf_net480
*340 clknet_1_1__leaf_net485
*341 clknet_1_1__leaf_net493
*342 clknet_1_1__leaf_net510
*343 clknet_1_1__leaf_net522
*344 clknet_1_1__leaf_net524
*345 clknet_1_1__leaf_net525
*346 clknet_1_1__leaf_net553
*347 clknet_1_1__leaf_net577
*348 clknet_1_1__leaf_net580
*349 clknet_1_1__leaf_net581
*350 clknet_1_1__leaf_net582
*351 clknet_1_1__leaf_net589
*352 clknet_1_1__leaf_net598
*353 clknet_1_1__leaf_net615
*354 clknet_1_1__leaf_net619
*355 clknet_1_1__leaf_net629
*356 clknet_1_1__leaf_net632
*357 clknet_1_1__leaf_net635
*358 clknet_1_1__leaf_net652
*359 clknet_1_1__leaf_net653
*360 clknet_1_1__leaf_net654
*361 clknet_1_1__leaf_net669
*362 clknet_1_1__leaf_net670
*363 clknet_1_1__leaf_net683
*364 clknet_1_1__leaf_net736
*365 clknet_1_1__leaf_net805
*366 clknet_1_1__leaf_net807
*367 clknet_1_1__leaf_net813
*368 clknet_1_1__leaf_net818
*369 clknet_1_1__leaf_net821
*370 clknet_1_1__leaf_net824
*371 clknet_1_1__leaf_net830
*372 clknet_1_1__leaf_net833
*373 clknet_1_1__leaf_net834
*374 clknet_1_1__leaf_net835
*375 clknet_1_1__leaf_net845
*376 clknet_1_1__leaf_net859
*377 clknet_1_1__leaf_net860
*378 clknet_1_1__leaf_net862
*379 clknet_2_0__leaf_clk
*380 clknet_2_1__leaf_clk
*381 clknet_2_2__leaf_clk
*382 clknet_2_3__leaf_clk
*383 clknet_leaf_0_clk
*384 clknet_leaf_10_clk
*385 clknet_leaf_11_clk
*386 clknet_leaf_12_clk
*387 clknet_leaf_13_clk
*388 clknet_leaf_14_clk
*389 clknet_leaf_15_clk
*390 clknet_leaf_16_clk
*391 clknet_leaf_17_clk
*392 clknet_leaf_18_clk
*393 clknet_leaf_19_clk
*394 clknet_leaf_1_clk
*395 clknet_leaf_20_clk
*396 clknet_leaf_21_clk
*397 clknet_leaf_22_clk
*398 clknet_leaf_23_clk
*399 clknet_leaf_24_clk
*400 clknet_leaf_25_clk
*401 clknet_leaf_26_clk
*402 clknet_leaf_27_clk
*403 clknet_leaf_28_clk
*404 clknet_leaf_29_clk
*405 clknet_leaf_2_clk
*406 clknet_leaf_30_clk
*407 clknet_leaf_31_clk
*408 clknet_leaf_32_clk
*409 clknet_leaf_33_clk
*410 clknet_leaf_34_clk
*411 clknet_leaf_35_clk
*412 clknet_leaf_36_clk
*413 clknet_leaf_37_clk
*414 clknet_leaf_38_clk
*415 clknet_leaf_39_clk
*416 clknet_leaf_3_clk
*417 clknet_leaf_4_clk
*418 clknet_leaf_5_clk
*419 clknet_leaf_6_clk
*420 clknet_leaf_7_clk
*421 clknet_leaf_8_clk
*422 clknet_leaf_9_clk
*423 net0
*424 net1
*425 net10
*426 net100
*427 net101
*428 net102
*429 net103
*430 net104
*431 net105
*432 net106
*433 net107
*434 net108
*435 net109
*436 net11
*437 net110
*438 net111
*439 net112
*440 net113
*441 net114
*442 net115
*443 net116
*444 net117
*445 net118
*446 net119
*447 net12
*448 net120
*449 net121
*450 net122
*451 net123
*452 net124
*453 net125
*454 net126
*455 net127
*456 net128
*457 net129
*458 net13
*459 net130
*460 net131
*461 net132
*462 net133
*463 net134
*464 net135
*465 net136
*466 net137
*467 net138
*468 net139
*469 net14
*470 net140
*471 net141
*472 net142
*473 net143
*474 net144
*475 net145
*476 net146
*477 net147
*478 net148
*479 net149
*480 net15
*481 net150
*482 net151
*483 net152
*484 net153
*485 net154
*486 net155
*487 net156
*488 net157
*489 net158
*490 net159
*491 net16
*492 net160
*493 net161
*494 net162
*495 net163
*496 net164
*497 net165
*498 net166
*499 net167
*500 net168
*501 net169
*502 net17
*503 net170
*504 net171
*505 net172
*506 net173
*507 net174
*508 net175
*509 net176
*510 net177
*511 net178
*512 net179
*513 net18
*514 net180
*515 net181
*516 net182
*517 net183
*518 net184
*519 net185
*520 net186
*521 net187
*522 net188
*523 net189
*524 net19
*525 net190
*526 net191
*527 net192
*528 net193
*529 net194
*530 net195
*531 net196
*532 net197
*533 net198
*534 net199
*535 net2
*536 net20
*537 net200
*538 net201
*539 net202
*540 net203
*541 net204
*542 net205
*543 net206
*544 net207
*545 net208
*546 net209
*547 net21
*548 net210
*549 net211
*550 net212
*551 net213
*552 net214
*553 net215
*554 net216
*555 net217
*556 net218
*557 net219
*558 net22
*559 net220
*560 net221
*561 net222
*562 net223
*563 net224
*564 net225
*565 net226
*566 net227
*567 net228
*568 net229
*569 net23
*570 net230
*571 net231
*572 net232
*573 net233
*574 net234
*575 net235
*576 net236
*577 net237
*578 net238
*579 net239
*580 net24
*581 net240
*582 net241
*583 net242
*584 net243
*585 net244
*586 net245
*587 net246
*588 net247
*589 net248
*590 net249
*591 net25
*592 net250
*593 net251
*594 net252
*595 net253
*596 net254
*597 net255
*598 net256
*599 net257
*600 net258
*601 net259
*602 net26
*603 net260
*604 net261
*605 net262
*606 net263
*607 net264
*608 net265
*609 net266
*610 net267
*611 net268
*612 net269
*613 net27
*614 net270
*615 net271
*616 net272
*617 net273
*618 net274
*619 net275
*620 net276
*621 net277
*622 net278
*623 net279
*624 net28
*625 net280
*626 net281
*627 net282
*628 net283
*629 net284
*630 net285
*631 net286
*632 net287
*633 net288
*634 net289
*635 net29
*636 net290
*637 net291
*638 net292
*639 net293
*640 net294
*641 net295
*642 net296
*643 net297
*644 net298
*645 net299
*646 net3
*647 net30
*648 net300
*649 net301
*650 net302
*651 net303
*652 net304
*653 net305
*654 net306
*655 net307
*656 net308
*657 net309
*658 net31
*659 net310
*660 net311
*661 net312
*662 net313
*663 net314
*664 net315
*665 net316
*666 net317
*667 net318
*668 net319
*669 net32
*670 net320
*671 net321
*672 net322
*673 net323
*674 net324
*675 net325
*676 net326
*677 net327
*678 net328
*679 net329
*680 net33
*681 net330
*682 net331
*683 net332
*684 net333
*685 net334
*686 net335
*687 net336
*688 net337
*689 net338
*690 net339
*691 net34
*692 net340
*693 net341
*694 net342
*695 net343
*696 net344
*697 net345
*698 net346
*699 net347
*700 net348
*701 net349
*702 net35
*703 net350
*704 net351
*705 net352
*706 net353
*707 net354
*708 net355
*709 net356
*710 net357
*711 net358
*712 net359
*713 net36
*714 net360
*715 net361
*716 net362
*717 net363
*718 net364
*719 net365
*720 net366
*721 net367
*722 net368
*723 net369
*724 net37
*725 net370
*726 net371
*727 net372
*728 net373
*729 net374
*730 net375
*731 net376
*732 net377
*733 net378
*734 net379
*735 net38
*736 net380
*737 net381
*738 net382
*739 net383
*740 net384
*741 net385
*742 net386
*743 net387
*744 net388
*745 net389
*746 net39
*747 net390
*748 net391
*749 net392
*750 net393
*751 net394
*752 net395
*753 net396
*754 net397
*755 net398
*756 net399
*757 net4
*758 net40
*759 net400
*760 net401
*761 net402
*762 net403
*763 net404
*764 net405
*765 net406
*766 net407
*767 net408
*768 net409
*769 net41
*770 net410
*771 net411
*772 net412
*773 net413
*774 net414
*775 net415
*776 net416
*777 net417
*778 net418
*779 net419
*780 net42
*781 net420
*782 net421
*783 net422
*784 net423
*785 net424
*786 net425
*787 net426
*788 net427
*789 net428
*790 net429
*791 net43
*792 net430
*793 net431
*794 net432
*795 net433
*796 net434
*797 net435
*798 net436
*799 net437
*800 net438
*801 net439
*802 net44
*803 net440
*804 net441
*805 net442
*806 net443
*807 net444
*808 net445
*809 net446
*810 net447
*811 net448
*812 net449
*813 net45
*814 net450
*815 net451
*816 net452
*817 net453
*818 net454
*819 net455
*820 net456
*821 net457
*822 net458
*823 net459
*824 net46
*825 net460
*826 net461
*827 net462
*828 net463
*829 net464
*830 net465
*831 net466
*832 net467
*833 net468
*834 net469
*835 net47
*836 net470
*837 net471
*838 net472
*839 net473
*840 net474
*841 net475
*842 net476
*843 net477
*844 net478
*845 net479
*846 net48
*847 net480
*848 net481
*849 net482
*850 net483
*851 net484
*852 net485
*853 net486
*854 net487
*855 net488
*856 net489
*857 net49
*858 net490
*859 net491
*860 net492
*861 net493
*862 net494
*863 net495
*864 net496
*865 net497
*866 net498
*867 net499
*868 net5
*869 net50
*870 net500
*871 net501
*872 net502
*873 net503
*874 net504
*875 net505
*876 net506
*877 net507
*878 net508
*879 net509
*880 net51
*881 net510
*882 net511
*883 net512
*884 net513
*885 net514
*886 net515
*887 net516
*888 net517
*889 net518
*890 net519
*891 net52
*892 net520
*893 net521
*894 net522
*895 net523
*896 net524
*897 net525
*898 net526
*899 net527
*900 net528
*901 net529
*902 net53
*903 net530
*904 net531
*905 net532
*906 net533
*907 net534
*908 net535
*909 net536
*910 net537
*911 net538
*912 net539
*913 net54
*914 net540
*915 net541
*916 net542
*917 net543
*918 net544
*919 net545
*920 net546
*921 net547
*922 net548
*923 net549
*924 net55
*925 net550
*926 net551
*927 net552
*928 net553
*929 net554
*930 net555
*931 net556
*932 net557
*933 net558
*934 net559
*935 net56
*936 net560
*937 net561
*938 net562
*939 net563
*940 net564
*941 net565
*942 net566
*943 net567
*944 net568
*945 net569
*946 net57
*947 net570
*948 net571
*949 net572
*950 net573
*951 net574
*952 net575
*953 net576
*954 net577
*955 net578
*956 net579
*957 net58
*958 net580
*959 net581
*960 net582
*961 net583
*962 net584
*963 net585
*964 net586
*965 net587
*966 net588
*967 net589
*968 net59
*969 net590
*970 net591
*971 net592
*972 net593
*973 net594
*974 net595
*975 net596
*976 net597
*977 net598
*978 net599
*979 net6
*980 net60
*981 net600
*982 net601
*983 net602
*984 net603
*985 net604
*986 net605
*987 net606
*988 net607
*989 net608
*990 net609
*991 net61
*992 net610
*993 net611
*994 net612
*995 net613
*996 net614
*997 net615
*998 net616
*999 net617
*1000 net618
*1001 net619
*1002 net62
*1003 net620
*1004 net621
*1005 net622
*1006 net623
*1007 net624
*1008 net625
*1009 net626
*1010 net627
*1011 net628
*1012 net629
*1013 net63
*1014 net630
*1015 net631
*1016 net632
*1017 net633
*1018 net634
*1019 net635
*1020 net636
*1021 net637
*1022 net638
*1023 net639
*1024 net64
*1025 net640
*1026 net641
*1027 net642
*1028 net643
*1029 net644
*1030 net645
*1031 net646
*1032 net647
*1033 net648
*1034 net649
*1035 net65
*1036 net650
*1037 net651
*1038 net652
*1039 net653
*1040 net654
*1041 net655
*1042 net656
*1043 net657
*1044 net658
*1045 net659
*1046 net66
*1047 net660
*1048 net661
*1049 net662
*1050 net663
*1051 net664
*1052 net665
*1053 net666
*1054 net667
*1055 net668
*1056 net669
*1057 net67
*1058 net670
*1059 net671
*1060 net672
*1061 net673
*1062 net674
*1063 net675
*1064 net676
*1065 net677
*1066 net678
*1067 net679
*1068 net68
*1069 net680
*1070 net681
*1071 net682
*1072 net683
*1073 net684
*1074 net685
*1075 net686
*1076 net687
*1077 net688
*1078 net689
*1079 net69
*1080 net690
*1081 net691
*1082 net692
*1083 net693
*1084 net694
*1085 net695
*1086 net696
*1087 net697
*1088 net698
*1089 net699
*1090 net7
*1091 net70
*1092 net700
*1093 net701
*1094 net702
*1095 net703
*1096 net704
*1097 net705
*1098 net706
*1099 net707
*1100 net708
*1101 net709
*1102 net71
*1103 net710
*1104 net711
*1105 net712
*1106 net713
*1107 net714
*1108 net715
*1109 net716
*1110 net717
*1111 net718
*1112 net719
*1113 net72
*1114 net720
*1115 net721
*1116 net722
*1117 net723
*1118 net724
*1119 net725
*1120 net726
*1121 net727
*1122 net728
*1123 net729
*1124 net73
*1125 net730
*1126 net731
*1127 net732
*1128 net733
*1129 net734
*1130 net735
*1131 net736
*1132 net737
*1133 net738
*1134 net739
*1135 net74
*1136 net740
*1137 net741
*1138 net742
*1139 net743
*1140 net744
*1141 net745
*1142 net746
*1143 net747
*1144 net748
*1145 net749
*1146 net75
*1147 net750
*1148 net751
*1149 net752
*1150 net753
*1151 net754
*1152 net755
*1153 net756
*1154 net757
*1155 net758
*1156 net759
*1157 net76
*1158 net760
*1159 net761
*1160 net762
*1161 net763
*1162 net764
*1163 net765
*1164 net766
*1165 net767
*1166 net768
*1167 net769
*1168 net77
*1169 net770
*1170 net771
*1171 net772
*1172 net773
*1173 net774
*1174 net775
*1175 net776
*1176 net777
*1177 net778
*1178 net779
*1179 net78
*1180 net780
*1181 net781
*1182 net782
*1183 net783
*1184 net784
*1185 net785
*1186 net786
*1187 net787
*1188 net788
*1189 net789
*1190 net79
*1191 net790
*1192 net791
*1193 net792
*1194 net793
*1195 net794
*1196 net795
*1197 net796
*1198 net797
*1199 net798
*1200 net799
*1201 net8
*1202 net80
*1203 net800
*1204 net801
*1205 net802
*1206 net803
*1207 net804
*1208 net805
*1209 net806
*1210 net807
*1211 net808
*1212 net809
*1213 net81
*1214 net810
*1215 net811
*1216 net812
*1217 net813
*1218 net814
*1219 net815
*1220 net816
*1221 net817
*1222 net818
*1223 net819
*1224 net82
*1225 net820
*1226 net821
*1227 net822
*1228 net823
*1229 net824
*1230 net825
*1231 net826
*1232 net827
*1233 net828
*1234 net829
*1235 net83
*1236 net830
*1237 net831
*1238 net832
*1239 net833
*1240 net834
*1241 net835
*1242 net836
*1243 net837
*1244 net838
*1245 net839
*1246 net84
*1247 net840
*1248 net841
*1249 net842
*1250 net843
*1251 net844
*1252 net845
*1253 net846
*1254 net847
*1255 net848
*1256 net849
*1257 net85
*1258 net850
*1259 net851
*1260 net852
*1261 net853
*1262 net854
*1263 net855
*1264 net856
*1265 net857
*1266 net858
*1267 net859
*1268 net86
*1269 net860
*1270 net861
*1271 net862
*1272 net863
*1273 net864
*1274 net865
*1275 net866
*1276 net867
*1277 net868
*1278 net869
*1279 net87
*1280 net870
*1281 net871
*1282 net872
*1283 net873
*1284 net874
*1285 net875
*1286 net876
*1287 net877
*1288 net878
*1289 net879
*1290 net88
*1291 net880
*1292 net881
*1293 net882
*1294 net883
*1295 net884
*1296 net885
*1297 net886
*1298 net887
*1299 net888
*1300 net889
*1301 net89
*1302 net890
*1303 net891
*1304 net892
*1305 net893
*1306 net894
*1307 net895
*1308 net896
*1309 net897
*1310 net898
*1311 net899
*1312 net9
*1313 net90
*1314 net900
*1315 net901
*1316 net902
*1317 net903
*1318 net904
*1319 net905
*1320 net906
*1321 net907
*1322 net908
*1323 net909
*1324 net91
*1325 net910
*1326 net911
*1327 net912
*1328 net913
*1329 net914
*1330 net915
*1331 net916
*1332 net917
*1333 net918
*1334 net919
*1335 net92
*1336 net920
*1337 net921
*1338 net922
*1339 net923
*1340 net924
*1341 net925
*1342 net926
*1343 net927
*1344 net928
*1345 net929
*1346 net93
*1347 net930
*1348 net931
*1349 net932
*1350 net933
*1351 net934
*1352 net935
*1353 net936
*1354 net937
*1355 net938
*1356 net939
*1357 net94
*1358 net940
*1359 net941
*1360 net942
*1361 net943
*1362 net944
*1363 net945
*1364 net946
*1365 net947
*1366 net948
*1367 net949
*1368 net95
*1369 net950
*1370 net951
*1371 net952
*1372 net953
*1373 net954
*1374 net955
*1375 net956
*1376 net957
*1377 net958
*1378 net959
*1379 net96
*1380 net960
*1381 net961
*1382 net962
*1383 net963
*1384 net964
*1385 net965
*1386 net966
*1387 net967
*1388 net968
*1389 net969
*1390 net97
*1391 net970
*1392 net971
*1393 net972
*1394 net973
*1395 net974
*1396 net975
*1397 net976
*1398 net977
*1399 net978
*1400 net979
*1401 net98
*1402 net980
*1403 net981
*1404 net982
*1405 net983
*1406 net984
*1407 net985
*1408 net986
*1409 net987
*1410 net988
*1411 net989
*1412 net99
*1413 net990
*1414 net991
*1415 ANTENNA_c100_SET_B
*1416 ANTENNA_c101_A2
*1417 ANTENNA_c103_X
*1418 ANTENNA_c104_A1
*1419 ANTENNA_c105_B
*1420 ANTENNA_c106_B
*1421 ANTENNA_c108_A2
*1422 ANTENNA_c110_B1
*1423 ANTENNA_c113_B
*1424 ANTENNA_c114_RESET_B
*1425 ANTENNA_c114_SET_B
*1426 ANTENNA_c117_A1
*1427 ANTENNA_c126_B
*1428 ANTENNA_c127_Y
*1429 ANTENNA_c128_B1_N
*1430 ANTENNA_c130_A2
*1431 ANTENNA_c130_A3
*1432 ANTENNA_c131_A
*1433 ANTENNA_c131_B
*1434 ANTENNA_c131_Y
*1435 ANTENNA_c132_A1
*1436 ANTENNA_c134_X
*1437 ANTENNA_c137_Y
*1438 ANTENNA_c139_A0
*1439 ANTENNA_c140_A1
*1440 ANTENNA_c141_A2
*1441 ANTENNA_c141_A3
*1442 ANTENNA_c142_A2
*1443 ANTENNA_c142_A3
*1444 ANTENNA_c142_X
*1445 ANTENNA_c143_A1
*1446 ANTENNA_c143_A3
*1447 ANTENNA_c144_A1
*1448 ANTENNA_c144_A2
*1449 ANTENNA_c145_S0
*1450 ANTENNA_c147_A2
*1451 ANTENNA_c147_X
*1452 ANTENNA_c148_D
*1453 ANTENNA_c148_SCE
*1454 ANTENNA_c149_Q
*1455 ANTENNA_c149_Q_N
*1456 ANTENNA_c150_A1
*1457 ANTENNA_c150_S0
*1458 ANTENNA_c150_S1
*1459 ANTENNA_c151_S0
*1460 ANTENNA_c151_X
*1461 ANTENNA_c152_A
*1462 ANTENNA_c152_B
*1463 ANTENNA_c153_A
*1464 ANTENNA_c153_B
*1465 ANTENNA_c154_A
*1466 ANTENNA_c154_B
*1467 ANTENNA_c155_A2
*1468 ANTENNA_c155_A3
*1469 ANTENNA_c155_Y
*1470 ANTENNA_c156_B
*1471 ANTENNA_c159_A2
*1472 ANTENNA_c159_X
*1473 ANTENNA_c160_A2
*1474 ANTENNA_c160_A3
*1475 ANTENNA_c160_B1
*1476 ANTENNA_c160_Y
*1477 ANTENNA_c161_A3
*1478 ANTENNA_c161_A4
*1479 ANTENNA_c162_A1
*1480 ANTENNA_c162_S0
*1481 ANTENNA_c162_S1
*1482 ANTENNA_c163_A1
*1483 ANTENNA_c163_S0
*1484 ANTENNA_c165_A2
*1485 ANTENNA_c165_B1
*1486 ANTENNA_c166_A3
*1487 ANTENNA_c166_X
*1488 ANTENNA_c167_A2
*1489 ANTENNA_c167_A3
*1490 ANTENNA_c167_S0
*1491 ANTENNA_c167_S1
*1492 ANTENNA_c168_A
*1493 ANTENNA_c168_B
*1494 ANTENNA_c169_B
*1495 ANTENNA_c170_B
*1496 ANTENNA_c171_A
*1497 ANTENNA_c171_B
*1498 ANTENNA_c172_X
*1499 ANTENNA_c173_B
*1500 ANTENNA_c173_X
*1501 ANTENNA_c174_X
*1502 ANTENNA_c175_A1
*1503 ANTENNA_c176_A2
*1504 ANTENNA_c176_B1_N
*1505 ANTENNA_c177_A3
*1506 ANTENNA_c177_A4
*1507 ANTENNA_c178_A1
*1508 ANTENNA_c178_A2
*1509 ANTENNA_c178_A3
*1510 ANTENNA_c178_A4
*1511 ANTENNA_c178_B1
*1512 ANTENNA_c179_A2
*1513 ANTENNA_c179_B1
*1514 ANTENNA_c181_A0
*1515 ANTENNA_c181_A2
*1516 ANTENNA_c181_A3
*1517 ANTENNA_c181_S0
*1518 ANTENNA_c181_S1
*1519 ANTENNA_c182_A2
*1520 ANTENNA_c182_A4
*1521 ANTENNA_c182_Y
*1522 ANTENNA_c183_A2
*1523 ANTENNA_c183_A3
*1524 ANTENNA_c183_S0
*1525 ANTENNA_c184_B1
*1526 ANTENNA_c186_B1
*1527 ANTENNA_c188_A2
*1528 ANTENNA_c188_A3
*1529 ANTENNA_c188_S0
*1530 ANTENNA_c189_A
*1531 ANTENNA_c190_B
*1532 ANTENNA_c191_A3
*1533 ANTENNA_c193_A1
*1534 ANTENNA_c193_A2
*1535 ANTENNA_c193_B1_N
*1536 ANTENNA_c196_B1
*1537 ANTENNA_c199_Q
*1538 ANTENNA_c202_Q
*1539 ANTENNA_c203_A2
*1540 ANTENNA_c203_S0
*1541 ANTENNA_c203_S1
*1542 ANTENNA_c203_X
*1543 ANTENNA_c204_Y
*1544 ANTENNA_c205_A3
*1545 ANTENNA_c205_S0
*1546 ANTENNA_c205_S1
*1547 ANTENNA_c206_Q
*1548 ANTENNA_c206_SCD
*1549 ANTENNA_c206_SCE
*1550 ANTENNA_c207_S0
*1551 ANTENNA_c208_A1
*1552 ANTENNA_c208_A2
*1553 ANTENNA_c209_A3
*1554 ANTENNA_c209_X
*1555 ANTENNA_c210_A
*1556 ANTENNA_c211_S
*1557 ANTENNA_c212_A
*1558 ANTENNA_c212_B
*1559 ANTENNA_c213_S
*1560 ANTENNA_c214_A
*1561 ANTENNA_c215_B
*1562 ANTENNA_c216_A
*1563 ANTENNA_c217_A1
*1564 ANTENNA_c217_S0
*1565 ANTENNA_c218_A
*1566 ANTENNA_c219_A
*1567 ANTENNA_c220_A0
*1568 ANTENNA_c220_A3
*1569 ANTENNA_c220_S0
*1570 ANTENNA_c221_RESET_B
*1571 ANTENNA_c222_A0
*1572 ANTENNA_c222_A3
*1573 ANTENNA_c224_A2
*1574 ANTENNA_c224_A3
*1575 ANTENNA_c224_S0
*1576 ANTENNA_c226_A3
*1577 ANTENNA_c226_X
*1578 ANTENNA_c227_RESET_B
*1579 ANTENNA_c228_A2
*1580 ANTENNA_c228_X
*1581 ANTENNA_c229_A3
*1582 ANTENNA_c229_S1
*1583 ANTENNA_c230_A2
*1584 ANTENNA_c230_S1
*1585 ANTENNA_c230_X
*1586 ANTENNA_c231_A2
*1587 ANTENNA_c231_B1
*1588 ANTENNA_c232_RESET_B
*1589 ANTENNA_c232_SCD
*1590 ANTENNA_c232_SCE
*1591 ANTENNA_c232_SET_B
*1592 ANTENNA_c233_A3
*1593 ANTENNA_c234_D
*1594 ANTENNA_c234_Q
*1595 ANTENNA_c234_SCD
*1596 ANTENNA_c234_SCE
*1597 ANTENNA_c235_A0
*1598 ANTENNA_c235_S
*1599 ANTENNA_c235_X
*1600 ANTENNA_c236_A2
*1601 ANTENNA_c236_B1
*1602 ANTENNA_c238_B1
*1603 ANTENNA_c238_X
*1604 ANTENNA_c239_A2
*1605 ANTENNA_c239_A3
*1606 ANTENNA_c239_S1
*1607 ANTENNA_c240_RESET_B
*1608 ANTENNA_c240_SET_B
*1609 ANTENNA_c241_A0
*1610 ANTENNA_c242_A1
*1611 ANTENNA_c242_A2
*1612 ANTENNA_c243_RESET_B
*1613 ANTENNA_c245_A3
*1614 ANTENNA_c245_S0
*1615 ANTENNA_c245_S1
*1616 ANTENNA_c247_D
*1617 ANTENNA_c248_A1
*1618 ANTENNA_c248_A3
*1619 ANTENNA_c248_S0
*1620 ANTENNA_c248_S1
*1621 ANTENNA_c249_A2
*1622 ANTENNA_c249_B1
*1623 ANTENNA_c250_A2
*1624 ANTENNA_c251_A0
*1625 ANTENNA_c251_S0
*1626 ANTENNA_c252_RESET_B
*1627 ANTENNA_c253_D
*1628 ANTENNA_c253_RESET_B
*1629 ANTENNA_c254_D
*1630 ANTENNA_c254_RESET_B
*1631 ANTENNA_c255_B1
*1632 ANTENNA_c256_A0
*1633 ANTENNA_c256_S0
*1634 ANTENNA_c257_B
*1635 ANTENNA_c258_A1
*1636 ANTENNA_c259_A3
*1637 ANTENNA_c259_S0
*1638 ANTENNA_c259_S1
*1639 ANTENNA_c259_X
*1640 ANTENNA_c260_A0
*1641 ANTENNA_c260_S0
*1642 ANTENNA_c260_S1
*1643 ANTENNA_c261_A1
*1644 ANTENNA_c261_B1
*1645 ANTENNA_c262_A1
*1646 ANTENNA_c262_A2
*1647 ANTENNA_c262_Y
*1648 ANTENNA_c263_A1
*1649 ANTENNA_c263_A2
*1650 ANTENNA_c263_S0
*1651 ANTENNA_c264_A3
*1652 ANTENNA_c264_S0
*1653 ANTENNA_c265_Y
*1654 ANTENNA_c267_X
*1655 ANTENNA_c268_X
*1656 ANTENNA_c269_A
*1657 ANTENNA_c269_X
*1658 ANTENNA_c270_X
*1659 ANTENNA_c271_A
*1660 ANTENNA_c271_B
*1661 ANTENNA_c271_Y
*1662 ANTENNA_c272_A
*1663 ANTENNA_c272_B
*1664 ANTENNA_c274_Q
*1665 ANTENNA_c274_RESET_B
*1666 ANTENNA_c275_Q
*1667 ANTENNA_c275_Q_N
*1668 ANTENNA_c275_SET_B
*1669 ANTENNA_c278_A3
*1670 ANTENNA_c278_A4
*1671 ANTENNA_c279_B
*1672 ANTENNA_c280_SET_B
*1673 ANTENNA_c281_SCD
*1674 ANTENNA_c281_SET_B
*1675 ANTENNA_c282_A1
*1676 ANTENNA_c282_S0
*1677 ANTENNA_c283_B
*1678 ANTENNA_c285_A0
*1679 ANTENNA_c285_S0
*1680 ANTENNA_c285_S1
*1681 ANTENNA_c286_A2
*1682 ANTENNA_c286_A3
*1683 ANTENNA_c286_S0
*1684 ANTENNA_c287_A3
*1685 ANTENNA_c287_S0
*1686 ANTENNA_c287_S1
*1687 ANTENNA_c287_X
*1688 ANTENNA_c288_Q
*1689 ANTENNA_c289_A
*1690 ANTENNA_c289_B
*1691 ANTENNA_c290_A1
*1692 ANTENNA_c290_A2
*1693 ANTENNA_c290_A3
*1694 ANTENNA_c291_A
*1695 ANTENNA_c291_B
*1696 ANTENNA_c291_X
*1697 ANTENNA_c292_A1
*1698 ANTENNA_c292_S0
*1699 ANTENNA_c292_S1
*1700 ANTENNA_c293_A0
*1701 ANTENNA_c293_A1
*1702 ANTENNA_c293_A2
*1703 ANTENNA_c293_S0
*1704 ANTENNA_c294_B
*1705 ANTENNA_c295_A2
*1706 ANTENNA_c295_A4
*1707 ANTENNA_c296_Q
*1708 ANTENNA_c296_SET_B
*1709 ANTENNA_c297_A0
*1710 ANTENNA_c297_A1
*1711 ANTENNA_c297_A2
*1712 ANTENNA_c297_A3
*1713 ANTENNA_c297_S0
*1714 ANTENNA_c298_B
*1715 ANTENNA_c299_A1
*1716 ANTENNA_c299_A2
*1717 ANTENNA_c299_B1_N
*1718 ANTENNA_c300_B
*1719 ANTENNA_c300_Y
*1720 ANTENNA_c301_A0
*1721 ANTENNA_c301_S
*1722 ANTENNA_c303_RESET_B
*1723 ANTENNA_c303_SCE
*1724 ANTENNA_c304_D
*1725 ANTENNA_c304_RESET_B
*1726 ANTENNA_c305_A2
*1727 ANTENNA_c305_A3
*1728 ANTENNA_c305_A4
*1729 ANTENNA_c306_B
*1730 ANTENNA_c308_A0
*1731 ANTENNA_c308_A1
*1732 ANTENNA_c308_A3
*1733 ANTENNA_c308_S0
*1734 ANTENNA_c309_A
*1735 ANTENNA_c310_A1
*1736 ANTENNA_c310_S0
*1737 ANTENNA_c311_A1
*1738 ANTENNA_c311_S0
*1739 ANTENNA_c311_S1
*1740 ANTENNA_c312_A2
*1741 ANTENNA_c312_A3
*1742 ANTENNA_c312_S0
*1743 ANTENNA_c312_S1
*1744 ANTENNA_c313_A1
*1745 ANTENNA_c313_A2
*1746 ANTENNA_c313_S0
*1747 ANTENNA_c314_S0
*1748 ANTENNA_c315_A1
*1749 ANTENNA_c315_A2
*1750 ANTENNA_c315_B1
*1751 ANTENNA_c315_X
*1752 ANTENNA_c316_A0
*1753 ANTENNA_c316_A1
*1754 ANTENNA_c316_S
*1755 ANTENNA_c317_A1
*1756 ANTENNA_c317_A2
*1757 ANTENNA_c317_X
*1758 ANTENNA_c318_Q
*1759 ANTENNA_c318_SCD
*1760 ANTENNA_c318_SCE
*1761 ANTENNA_c319_A1
*1762 ANTENNA_c319_A2
*1763 ANTENNA_c320_B1
*1764 ANTENNA_c322_A1
*1765 ANTENNA_c322_S0
*1766 ANTENNA_c322_S1
*1767 ANTENNA_c323_A1
*1768 ANTENNA_c323_A2
*1769 ANTENNA_c323_S0
*1770 ANTENNA_c323_X
*1771 ANTENNA_c324_SCD
*1772 ANTENNA_c325_A3
*1773 ANTENNA_c326_A1
*1774 ANTENNA_c326_A2
*1775 ANTENNA_c326_A3
*1776 ANTENNA_c327_A0
*1777 ANTENNA_c327_A2
*1778 ANTENNA_c327_A3
*1779 ANTENNA_c327_X
*1780 ANTENNA_c328_SCD
*1781 ANTENNA_c329_A2
*1782 ANTENNA_c329_A3
*1783 ANTENNA_c329_S1
*1784 ANTENNA_c330_A2
*1785 ANTENNA_c330_S0
*1786 ANTENNA_c330_S1
*1787 ANTENNA_c331_S0
*1788 ANTENNA_c333_A0
*1789 ANTENNA_c333_A2
*1790 ANTENNA_c333_A3
*1791 ANTENNA_c334_A1
*1792 ANTENNA_c334_A2
*1793 ANTENNA_c334_S1
*1794 ANTENNA_c336_SCD
*1795 ANTENNA_c336_SCE
*1796 ANTENNA_c336_SET_B
*1797 ANTENNA_c337_A2
*1798 ANTENNA_c338_A2
*1799 ANTENNA_c338_A3
*1800 ANTENNA_c338_B1
*1801 ANTENNA_c339_A1
*1802 ANTENNA_c339_A2
*1803 ANTENNA_c339_A3
*1804 ANTENNA_c340_A0
*1805 ANTENNA_c340_A1