*SPEF "ieee 1481-1999"
*DESIGN "netlist_0"
*DATE "22:33:56 Saturday July 20, 2024"
*VENDOR "The OpenROAD Project"
*PROGRAM "OpenROAD"
*VERSION "d423155d69de7f683a23f6916ead418a615ad4ad"
*DESIGN_FLOW "NAME_SCOPE LOCAL" "PIN_CAP NONE"
*DIVIDER /
*DELIMITER :
*BUS_DELIMITER []
*T_UNIT 1 NS
*C_UNIT 1 PF
*R_UNIT 1 OHM
*L_UNIT 1 HENRY

*NAME_MAP
*3 clk
*4 in0
*5 in1
*6 in10
*7 in11
*8 in12
*9 in13
*10 in14
*11 in15
*12 in16
*13 in17
*14 in18
*15 in19
*16 in2
*17 in20
*18 in21
*19 in22
*20 in23
*21 in24
*22 in25
*23 in26
*24 in27
*25 in28
*26 in29
*27 in3
*28 in30
*29 in31
*30 in32
*31 in33
*32 in34
*33 in35
*34 in36
*35 in37
*36 in38
*37 in39
*38 in4
*39 in40
*40 in41
*41 in42
*42 in43
*43 in44
*44 in45
*45 in46
*46 in47
*47 in48
*48 in49
*49 in5
*50 in50
*51 in51
*52 in52
*53 in53
*54 in54
*55 in55
*56 in56
*57 in57
*58 in58
*59 in59
*60 in6
*61 in60
*62 in61
*63 in7
*64 in8
*65 in9
*66 out0
*67 out1
*68 out10
*69 out11
*70 out12
*71 out13
*72 out14
*73 out15
*74 out16
*75 out17
*76 out18
*77 out19
*78 out2
*79 out20
*80 out21
*81 out22
*82 out23
*83 out24
*84 out25
*85 out26
*86 out27
*87 out28
*88 out29
*89 out3
*90 out30
*91 out31
*92 out32
*93 out33
*94 out34
*95 out35
*96 out36
*97 out37
*98 out38
*99 out39
*100 out4
*101 out40
*102 out41
*103 out42
*104 out43
*105 out44
*106 out45
*107 out46
*108 out47
*109 out48
*110 out49
*111 out5
*112 out50
*113 out51
*114 out52
*115 out53
*116 out54
*117 out55
*118 out56
*119 out57
*120 out58
*121 out59
*122 out6
*123 out60
*124 out61
*125 out7
*126 out8
*127 out9
*128 rst
*129 clknet_0_clk
*130 clknet_0_net405
*131 clknet_0_net406
*132 clknet_0_net408
*133 clknet_0_net411
*134 clknet_0_net412
*135 clknet_0_net413
*136 clknet_0_net425
*137 clknet_0_net428
*138 clknet_0_net457
*139 clknet_0_net465
*140 clknet_0_net508
*141 clknet_0_net510
*142 clknet_0_net520
*143 clknet_0_net531
*144 clknet_0_net543
*145 clknet_0_net549
*146 clknet_0_net555
*147 clknet_0_net563
*148 clknet_0_net569
*149 clknet_0_net599
*150 clknet_0_net660
*151 clknet_0_net661
*152 clknet_0_net680
*153 clknet_0_net681
*154 clknet_1_0__leaf_net405
*155 clknet_1_0__leaf_net406
*156 clknet_1_0__leaf_net408
*157 clknet_1_0__leaf_net411
*158 clknet_1_0__leaf_net412
*159 clknet_1_0__leaf_net413
*160 clknet_1_0__leaf_net425
*161 clknet_1_0__leaf_net428
*162 clknet_1_0__leaf_net457
*163 clknet_1_0__leaf_net465
*164 clknet_1_0__leaf_net508
*165 clknet_1_0__leaf_net510
*166 clknet_1_0__leaf_net520
*167 clknet_1_0__leaf_net531
*168 clknet_1_0__leaf_net543
*169 clknet_1_0__leaf_net549
*170 clknet_1_0__leaf_net555
*171 clknet_1_0__leaf_net563
*172 clknet_1_0__leaf_net569
*173 clknet_1_0__leaf_net599
*174 clknet_1_0__leaf_net660
*175 clknet_1_0__leaf_net661
*176 clknet_1_0__leaf_net680
*177 clknet_1_0__leaf_net681
*178 clknet_1_1__leaf_net405
*179 clknet_1_1__leaf_net406
*180 clknet_1_1__leaf_net408
*181 clknet_1_1__leaf_net411
*182 clknet_1_1__leaf_net412
*183 clknet_1_1__leaf_net413
*184 clknet_1_1__leaf_net425
*185 clknet_1_1__leaf_net428
*186 clknet_1_1__leaf_net457
*187 clknet_1_1__leaf_net465
*188 clknet_1_1__leaf_net508
*189 clknet_1_1__leaf_net510
*190 clknet_1_1__leaf_net520
*191 clknet_1_1__leaf_net531
*192 clknet_1_1__leaf_net543
*193 clknet_1_1__leaf_net549
*194 clknet_1_1__leaf_net555
*195 clknet_1_1__leaf_net563
*196 clknet_1_1__leaf_net569
*197 clknet_1_1__leaf_net599
*198 clknet_1_1__leaf_net660
*199 clknet_1_1__leaf_net661
*200 clknet_1_1__leaf_net680
*201 clknet_1_1__leaf_net681
*202 clknet_4_0_0_clk
*203 clknet_4_10_0_clk
*204 clknet_4_11_0_clk
*205 clknet_4_12_0_clk
*206 clknet_4_13_0_clk
*207 clknet_4_14_0_clk
*208 clknet_4_15_0_clk
*209 clknet_4_1_0_clk
*210 clknet_4_2_0_clk
*211 clknet_4_3_0_clk
*212 clknet_4_4_0_clk
*213 clknet_4_5_0_clk
*214 clknet_4_6_0_clk
*215 clknet_4_7_0_clk
*216 clknet_4_8_0_clk
*217 clknet_4_9_0_clk
*218 net0
*219 net1
*220 net10
*221 net100
*222 net101
*223 net102
*224 net103
*225 net104
*226 net105
*227 net106
*228 net107
*229 net108
*230 net109
*231 net11
*232 net110
*233 net111
*234 net112
*235 net113
*236 net114
*237 net115
*238 net116
*239 net117
*240 net118
*241 net119
*242 net12
*243 net120
*244 net121
*245 net122
*246 net123
*247 net124
*248 net125
*249 net126
*250 net127
*251 net128
*252 net129
*253 net13
*254 net130
*255 net131
*256 net132
*257 net133
*258 net134
*259 net135
*260 net136
*261 net137
*262 net138
*263 net139
*264 net14
*265 net140
*266 net141
*267 net142
*268 net143
*269 net144
*270 net145
*271 net146
*272 net147
*273 net148
*274 net149
*275 net15
*276 net150
*277 net151
*278 net152
*279 net153
*280 net154
*281 net155
*282 net156
*283 net157
*284 net158
*285 net159
*286 net16
*287 net160
*288 net161
*289 net162
*290 net163
*291 net164
*292 net165
*293 net166
*294 net167
*295 net168
*296 net169
*297 net17
*298 net170
*299 net171
*300 net172
*301 net173
*302 net174
*303 net175
*304 net176
*305 net177
*306 net178
*307 net179
*308 net18
*309 net180
*310 net181
*311 net182
*312 net183
*313 net184
*314 net185
*315 net186
*316 net187
*317 net188
*318 net189
*319 net19
*320 net190
*321 net191
*322 net192
*323 net193
*324 net194
*325 net195
*326 net196
*327 net197
*328 net198
*329 net199
*330 net2
*331 net20
*332 net200
*333 net201
*334 net202
*335 net203
*336 net204
*337 net205
*338 net206
*339 net207
*340 net208
*341 net209
*342 net21
*343 net210
*344 net211
*345 net212
*346 net213
*347 net214
*348 net215
*349 net216
*350 net217
*351 net218
*352 net219
*353 net22
*354 net220
*355 net221
*356 net222
*357 net223
*358 net224
*359 net225
*360 net226
*361 net227
*362 net228
*363 net229
*364 net23
*365 net230
*366 net231
*367 net232
*368 net233
*369 net234
*370 net235
*371 net236
*372 net237
*373 net238
*374 net239
*375 net24
*376 net240
*377 net241
*378 net242
*379 net243
*380 net244
*381 net245
*382 net246
*383 net247
*384 net248
*385 net249
*386 net25
*387 net250
*388 net251
*389 net252
*390 net253
*391 net254
*392 net255
*393 net256
*394 net257
*395 net258
*396 net259
*397 net26
*398 net260
*399 net261
*400 net262
*401 net263
*402 net264
*403 net265
*404 net266
*405 net267
*406 net268
*407 net269
*408 net27
*409 net270
*410 net271
*411 net272
*412 net273
*413 net274
*414 net275
*415 net276
*416 net277
*417 net278
*418 net279
*419 net28
*420 net280
*421 net281
*422 net282
*423 net283
*424 net284
*425 net285
*426 net286
*427 net287
*428 net288
*429 net289
*430 net29
*431 net290
*432 net291
*433 net292
*434 net293
*435 net294
*436 net295
*437 net296
*438 net297
*439 net298
*440 net299
*441 net3
*442 net30
*443 net300
*444 net301
*445 net302
*446 net303
*447 net304
*448 net305
*449 net306
*450 net307
*451 net308
*452 net309
*453 net31
*454 net310
*455 net311
*456 net312
*457 net313
*458 net314
*459 net315
*460 net316
*461 net317
*462 net318
*463 net319
*464 net32
*465 net320
*466 net321
*467 net322
*468 net323
*469 net324
*470 net325
*471 net326
*472 net327
*473 net328
*474 net329
*475 net33
*476 net330
*477 net331
*478 net332
*479 net333
*480 net334
*481 net335
*482 net336
*483 net337
*484 net338
*485 net339
*486 net34
*487 net340
*488 net341
*489 net342
*490 net343
*491 net344
*492 net345
*493 net346
*494 net347
*495 net348
*496 net349
*497 net35
*498 net350
*499 net351
*500 net352
*501 net353
*502 net354
*503 net355
*504 net356
*505 net357
*506 net358
*507 net359
*508 net36
*509 net360
*510 net361
*511 net362
*512 net363
*513 net364
*514 net365
*515 net366
*516 net367
*517 net368
*518 net369
*519 net37
*520 net370
*521 net371
*522 net372
*523 net373
*524 net374
*525 net375
*526 net376
*527 net377
*528 net378
*529 net379
*530 net38
*531 net380
*532 net381
*533 net382
*534 net383
*535 net384
*536 net385
*537 net386
*538 net387
*539 net388
*540 net389
*541 net39
*542 net390
*543 net391
*544 net392
*545 net393
*546 net394
*547 net395
*548 net396
*549 net397
*550 net398
*551 net399
*552 net4
*553 net40
*554 net400
*555 net401
*556 net402
*557 net403
*558 net404
*559 net405
*560 net406
*561 net407
*562 net408
*563 net409
*564 net41
*565 net410
*566 net411
*567 net412
*568 net413
*569 net414
*570 net415
*571 net416
*572 net417
*573 net418
*574 net419
*575 net42
*576 net420
*577 net421
*578 net422
*579 net423
*580 net424
*581 net425
*582 net426
*583 net427
*584 net428
*585 net429
*586 net43
*587 net430
*588 net431
*589 net432
*590 net433
*591 net434
*592 net435
*593 net436
*594 net437
*595 net438
*596 net439
*597 net44
*598 net440
*599 net441
*600 net442
*601 net443
*602 net444
*603 net445
*604 net446
*605 net447
*606 net448
*607 net449
*608 net45
*609 net450
*610 net451
*611 net452
*612 net453
*613 net454
*614 net455
*615 net456
*616 net457
*617 net458
*618 net459
*619 net46
*620 net460
*621 net461
*622 net462
*623 net463
*624 net464
*625 net465
*626 net466
*627 net467
*628 net468
*629 net469
*630 net47
*631 net470
*632 net471
*633 net472
*634 net473
*635 net474
*636 net475
*637 net476
*638 net477
*639 net478
*640 net479
*641 net48
*642 net480
*643 net481
*644 net482
*645 net483
*646 net484
*647 net485
*648 net486
*649 net487
*650 net488
*651 net489
*652 net49
*653 net490
*654 net491
*655 net492
*656 net493
*657 net494
*658 net495
*659 net496
*660 net497
*661 net498
*662 net499
*663 net5
*664 net50
*665 net500
*666 net501
*667 net502
*668 net503
*669 net504
*670 net505
*671 net506
*672 net507
*673 net508
*674 net509
*675 net51
*676 net510
*677 net511
*678 net512
*679 net513
*680 net514
*681 net515
*682 net516
*683 net517
*684 net518
*685 net519
*686 net52
*687 net520
*688 net521
*689 net522
*690 net523
*691 net524
*692 net525
*693 net526
*694 net527
*695 net528
*696 net529
*697 net53
*698 net530
*699 net531
*700 net532
*701 net533
*702 net534
*703 net535
*704 net536
*705 net537
*706 net538
*707 net539
*708 net54
*709 net540
*710 net541
*711 net542
*712 net543
*713 net544
*714 net545
*715 net546
*716 net547
*717 net548
*718 net549
*719 net55
*720 net550
*721 net551
*722 net552
*723 net553
*724 net554
*725 net555
*726 net556
*727 net557
*728 net558
*729 net559
*730 net56
*731 net560
*732 net561
*733 net562
*734 net563
*735 net564
*736 net565
*737 net566
*738 net567
*739 net568
*740 net569
*741 net57
*742 net570
*743 net571
*744 net572
*745 net573
*746 net574
*747 net575
*748 net576
*749 net577
*750 net578
*751 net579
*752 net58
*753 net580
*754 net581
*755 net582
*756 net583
*757 net584
*758 net585
*759 net586
*760 net587
*761 net588
*762 net589
*763 net59
*764 net590
*765 net591
*766 net592
*767 net593
*768 net594
*769 net595
*770 net596
*771 net597
*772 net598
*773 net599
*774 net6
*775 net60
*776 net600
*777 net601
*778 net602
*779 net603
*780 net604
*781 net605
*782 net606
*783 net607
*784 net608
*785 net609
*786 net61
*787 net610
*788 net611
*789 net612
*790 net613
*791 net614
*792 net615
*793 net616
*794 net617
*795 net618
*796 net619
*797 net62
*798 net620
*799 net621
*800 net622
*801 net623
*802 net624
*803 net625
*804 net626
*805 net627
*806 net628
*807 net629
*808 net63
*809 net630
*810 net631
*811 net632
*812 net633
*813 net634
*814 net635
*815 net636
*816 net637
*817 net638
*818 net639
*819 net64
*820 net640
*821 net641
*822 net642
*823 net643
*824 net644
*825 net645
*826 net646
*827 net647
*828 net648
*829 net649
*830 net65
*831 net650
*832 net651
*833 net652
*834 net653
*835 net654
*836 net655
*837 net656
*838 net657
*839 net658
*840 net659
*841 net66
*842 net660
*843 net661
*844 net662
*845 net663
*846 net664
*847 net665
*848 net666
*849 net667
*850 net668
*851 net669
*852 net67
*853 net670
*854 net671
*855 net672
*856 net673
*857 net674
*858 net675
*859 net676
*860 net677
*861 net678
*862 net679
*863 net68
*864 net680
*865 net681
*866 net682
*867 net683
*868 net684
*869 net685
*870 net686
*871 net687
*872 net688
*873 net689
*874 net69
*875 net690
*876 net691
*877 net692
*878 net693
*879 net694
*880 net695
*881 net696
*882 net697
*883 net698
*884 net699
*885 net7
*886 net70
*887 net700
*888 net701
*889 net702
*890 net703
*891 net704
*892 net705
*893 net706
*894 net707
*895 net708
*896 net709
*897 net71
*898 net710
*899 net711
*900 net712
*901 net713
*902 net714
*903 net715
*904 net716
*905 net717
*906 net718
*907 net719
*908 net72
*909 net720
*910 net721
*911 net722
*912 net723
*913 net724
*914 net725
*915 net726
*916 net727
*917 net728
*918 net729
*919 net73
*920 net730
*921 net731
*922 net732
*923 net733
*924 net734
*925 net735
*926 net736
*927 net737
*928 net738
*929 net739
*930 net74
*931 net740
*932 net741
*933 net742
*934 net743
*935 net744
*936 net745
*937 net746
*938 net747
*939 net748
*940 net749
*941 net75
*942 net750
*943 net751
*944 net752
*945 net753
*946 net754
*947 net755
*948 net756
*949 net757
*950 net758
*951 net759
*952 net76
*953 net760
*954 net761
*955 net762
*956 net763
*957 net764
*958 net765
*959 net766
*960 net767
*961 net768
*962 net769
*963 net77
*964 net770
*965 net771
*966 net772
*967 net773
*968 net774
*969 net775
*970 net776
*971 net777
*972 net778
*973 net779
*974 net78
*975 net780
*976 net781
*977 net782
*978 net783
*979 net784
*980 net785
*981 net786
*982 net787
*983 net788
*984 net789
*985 net79
*986 net790
*987 net791
*988 net792
*989 net793
*990 net794
*991 net795
*992 net796
*993 net797
*994 net798
*995 net799
*996 net8
*997 net80
*998 net800
*999 net801
*1000 net802
*1001 net803
*1002 net804
*1003 net805
*1004 net806
*1005 net807
*1006 net808
*1007 net809
*1008 net81
*1009 net810
*1010 net811
*1011 net812
*1012 net813
*1013 net814
*1014 net815
*1015 net816
*1016 net817
*1017 net818
*1018 net819
*1019 net82
*1020 net820
*1021 net821
*1022 net822
*1023 net823
*1024 net824
*1025 net825
*1026 net826
*1027 net827
*1028 net828
*1029 net829
*1030 net83
*1031 net830
*1032 net831
*1033 net832
*1034 net833
*1035 net834
*1036 net835
*1037 net836
*1038 net837
*1039 net838
*1040 net839
*1041 net84
*1042 net840
*1043 net841
*1044 net842
*1045 net843
*1046 net844
*1047 net845
*1048 net846
*1049 net847
*1050 net848
*1051 net849
*1052 net85
*1053 net850
*1054 net851
*1055 net852
*1056 net853
*1057 net854
*1058 net855
*1059 net856
*1060 net857
*1061 net858
*1062 net859
*1063 net86
*1064 net860
*1065 net861
*1066 net862
*1067 net863
*1068 net864
*1069 net865
*1070 net866
*1071 net867
*1072 net868
*1073 net869
*1074 net87
*1075 net870
*1076 net871
*1077 net872
*1078 net873
*1079 net874
*1080 net875
*1081 net876
*1082 net877
*1083 net88
*1084 net882
*1085 net883
*1086 net884
*1087 net885
*1088 net886
*1089 net887
*1090 net888
*1091 net889
*1092 net89
*1093 net890
*1094 net891
*1095 net892
*1096 net893
*1097 net894
*1098 net895
*1099 net896
*1100 net897
*1101 net898
*1102 net899
*1103 net9
*1104 net90
*1105 net900
*1106 net901
*1107 net902
*1108 net903
*1109 net904
*1110 net905
*1111 net906
*1112 net907
*1113 net908
*1114 net909
*1115 net91
*1116 net910
*1117 net911
*1118 net912
*1119 net913
*1120 net914
*1121 net915
*1122 net916
*1123 net917
*1124 net92
*1125 net93
*1126 net94
*1127 net95
*1128 net96
*1129 net97
*1130 net98
*1131 net99
*1132 ANTENNA_1
*1133 ANTENNA_2
*1134 ANTENNA_3
*1135 ANTENNA_c102_A
*1136 ANTENNA_c103_A
*1137 ANTENNA_c103_B_N
*1138 ANTENNA_c104_Y
*1139 ANTENNA_c106_C
*1140 ANTENNA_c109_Y
*1141 ANTENNA_c111_A
*1142 ANTENNA_c111_Y
*1143 ANTENNA_c114_B
*1144 ANTENNA_c115_B
*1145 ANTENNA_c118_X
*1146 ANTENNA_c119_A
*1147 ANTENNA_c119_B
*1148 ANTENNA_c120_B_N
*1149 ANTENNA_c121_B
*1150 ANTENNA_c121_C_N
*1151 ANTENNA_c122_B_N
*1152 ANTENNA_c124_B_N
*1153 ANTENNA_c126_B
*1154 ANTENNA_c127_A
*1155 ANTENNA_c129_A_N
*1156 ANTENNA_c132_A
*1157 ANTENNA_c132_X
*1158 ANTENNA_c133_B_N
*1159 ANTENNA_c135_A
*1160 ANTENNA_c136_B
*1161 ANTENNA_c136_C_N
*1162 ANTENNA_c137_X
*1163 ANTENNA_c138_A
*1164 ANTENNA_c142_Y
*1165 ANTENNA_c143_B
*1166 ANTENNA_c144_B_N
*1167 ANTENNA_c147_C_N
*1168 ANTENNA_c147_D_N
*1169 ANTENNA_c149_B
*1170 ANTENNA_c152_B1
*1171 ANTENNA_c154_A_N
*1172 ANTENNA_c154_B
*1173 ANTENNA_c154_X
*1174 ANTENNA_c158_A
*1175 ANTENNA_c159_B
*1176 ANTENNA_c160_A
*1177 ANTENNA_c160_B_N
*1178 ANTENNA_c161_B
*1179 ANTENNA_c162_B
*1180 ANTENNA_c166_B_N
*1181 ANTENNA_c167_Y
*1182 ANTENNA_c169_C
*1183 ANTENNA_c171_B
*1184 ANTENNA_c173_C_N
*1185 ANTENNA_c173_X
*1186 ANTENNA_c174_B
*1187 ANTENNA_c174_C_N
*1188 ANTENNA_c175_A0
*1189 ANTENNA_c176_Y
*1190 ANTENNA_c179_B
*1191 ANTENNA_c179_X
*1192 ANTENNA_c180_B
*1193 ANTENNA_c181_A1
*1194 ANTENNA_c181_A2
*1195 ANTENNA_c181_S0
*1196 ANTENNA_c181_S1
*1197 ANTENNA_c182_B
*1198 ANTENNA_c184_B
*1199 ANTENNA_c187_B
*1200 ANTENNA_c187_Y
*1201 ANTENNA_c188_X
*1202 ANTENNA_c190_A
*1203 ANTENNA_c190_B
*1204 ANTENNA_c190_Y
*1205 ANTENNA_c192_B
*1206 ANTENNA_c192_C_N
*1207 ANTENNA_c193_C_N
*1208 ANTENNA_c193_X
*1209 ANTENNA_c195_A
*1210 ANTENNA_c197_X
*1211 ANTENNA_c198_B_N
*1212 ANTENNA_c200_B
*1213 ANTENNA_c200_C_N
*1214 ANTENNA_c200_D_N
*1215 ANTENNA_c201_A
*1216 ANTENNA_c201_B
*1217 ANTENNA_c203_A_N
*1218 ANTENNA_c203_B
*1219 ANTENNA_c204_B
*1220 ANTENNA_c205_C_N
*1221 ANTENNA_c207_X
*1222 ANTENNA_c208_A_N
*1223 ANTENNA_c208_B
*1224 ANTENNA_c210_C
*1225 ANTENNA_c210_X
*1226 ANTENNA_c213_Y
*1227 ANTENNA_c214_CLK
*1228 ANTENNA_c214_RESET_B
*1229 ANTENNA_c216_B
*1230 ANTENNA_c217_S0
*1231 ANTENNA_c218_B
*1232 ANTENNA_c218_D_N
*1233 ANTENNA_c219_B
*1234 ANTENNA_c220_B
*1235 ANTENNA_c221_B
*1236 ANTENNA_c222_A
*1237 ANTENNA_c223_B1
*1238 ANTENNA_c223_C1
*1239 ANTENNA_c225_A_N
*1240 ANTENNA_c227_C
*1241 ANTENNA_c229_Y
*1242 ANTENNA_c231_Y
*1243 ANTENNA_c232_B_N
*1244 ANTENNA_c233_B
*1245 ANTENNA_c235_CLK
*1246 ANTENNA_c235_SCD
*1247 ANTENNA_c238_B
*1248 ANTENNA_c238_D_N
*1249 ANTENNA_c239_CLK_N
*1250 ANTENNA_c239_SCE
*1251 ANTENNA_c240_S0
*1252 ANTENNA_c240_S1
*1253 ANTENNA_c243_B
*1254 ANTENNA_c244_B
*1255 ANTENNA_c245_A
*1256 ANTENNA_c248_B
*1257 ANTENNA_c249_B
*1258 ANTENNA_c250_B
*1259 ANTENNA_c251_CLK_N
*1260 ANTENNA_c252_A
*1261 ANTENNA_c254_C_N
*1262 ANTENNA_c257_CLK_N
*1263 ANTENNA_c257_SET_B
*1264 ANTENNA_c260_A_N
*1265 ANTENNA_c262_C
*1266 ANTENNA_c263_A2
*1267 ANTENNA_c264_B
*1268 ANTENNA_c264_X
*1269 ANTENNA_c265_A
*1270 ANTENNA_c266_A_N
*1271 ANTENNA_c266_X
*1272 ANTENNA_c267_B
*1273 ANTENNA_c267_Y
*1274 ANTENNA_c268_B
*1275 ANTENNA_c269_B
*1276 ANTENNA_c270_B_N
*1277 ANTENNA_c271_A
*1278 ANTENNA_c271_B
*1279 ANTENNA_c272_A
*1280 ANTENNA_c272_B
*1281 ANTENNA_c273_A_N
*1282 ANTENNA_c274_A
*1283 ANTENNA_c275_B
*1284 ANTENNA_c276_Y
*1285 ANTENNA_c277_B_N
*1286 ANTENNA_c278_B
*1287 ANTENNA_c279_X
*1288 ANTENNA_c281_X
*1289 ANTENNA_c282_A
*1290 ANTENNA_c284_X
*1291 ANTENNA_c285_A0
*1292 ANTENNA_c285_S0
*1293 ANTENNA_c285_S1
*1294 ANTENNA_c286_A
*1295 ANTENNA_c288_B_N
*1296 ANTENNA_c290_B
*1297 ANTENNA_c292_B
*1298 ANTENNA_c293_B_N
*1299 ANTENNA_c299_X
*1300 ANTENNA_c300_Y
*1301 ANTENNA_c302_X
*1302 ANTENNA_c304_B
*1303 ANTENNA_c305_CLK
*1304 ANTENNA_c305_D
*1305 ANTENNA_c307_RESET_B
*1306 ANTENNA_c307_SCD
*1307 ANTENNA_c310_B
*1308 ANTENNA_c311_B
*1309 ANTENNA_c314_A
*1310 ANTENNA_c314_B
*1311 ANTENNA_c316_C_N
*1312 ANTENNA_c317_B
*1313 ANTENNA_c319_C_N
*1314 ANTENNA_c321_B
*1315 ANTENNA_c322_B
*1316 ANTENNA_c323_X
*1317 ANTENNA_c325_X
*1318 ANTENNA_c326_A1
*1319 ANTENNA_c326_A2
*1320 ANTENNA_c326_S0
*1321 ANTENNA_c326_X
*1322 ANTENNA_c327_X
*1323 ANTENNA_c328_CLK
*1324 ANTENNA_c328_Q
*1325 ANTENNA_c328_SCE
*1326 ANTENNA_c329_A2
*1327 ANTENNA_c329_A3
*1328 ANTENNA_c329_S0
*1329 ANTENNA_c329_S1
*1330 ANTENNA_c330_A2
*1331 ANTENNA_c330_B1
*1332 ANTENNA_c330_C1
*1333 ANTENNA_c332_B
*1334 ANTENNA_c333_B
*1335 ANTENNA_c333_Y
*1336 ANTENNA_c337_A
*1337 ANTENNA_c338_A_N
*1338 ANTENNA_c338_X
*1339 ANTENNA_c339_B
*1340 ANTENNA_c339_C
*1341 ANTENNA_c341_B
*1342 ANTENNA_c342_X
*1343 ANTENNA_c345_B_N
*1344 ANTENNA_c348_Y
*1345 ANTENNA_c349_CLK
*1346 ANTENNA_c349_Q
*1347 ANTENNA_c349_SCD
*1348 ANTENNA_c350_SCD
*1349 ANTENNA_c350_SET_B
*1350 ANTENNA_c351_B
*1351 ANTENNA_c351_X
*1352 ANTENNA_c352_A
*1353 ANTENNA_c352_B
*1354 ANTENNA_c354_SCD
*1355 ANTENNA_c355_X
*1356 ANTENNA_c356_A
*1357 ANTENNA_c358_A2
*1358 ANTENNA_c358_B1
*1359 ANTENNA_c358_C1
*1360 ANTENNA_c359_CLK_N
*1361 ANTENNA_c359_RESET_B
*1362 ANTENNA_c360_B
*1363 ANTENNA_c361_B
*1364 ANTENNA_c362_C
*1365 ANTENNA_c363_CLK_N
*1366 ANTENNA_c363_D
*1367 ANTENNA_c364_A
*1368 ANTENNA_c364_B
*1369 ANTENNA_c364_X
*1370 ANTENNA_c365_CLK
*1371 ANTENNA_c367_B
*1372 ANTENNA_c367_C
*1373 ANTENNA_c368_A
*1374 ANTENNA_c369_A
*1375 ANTENNA_c369_X
*1376 ANTENNA_c370_A
*1377 ANTENNA_c371_A
*1378 ANTENNA_c392_A1
*1379 ANTENNA_c392_A2
*1380 ANTENNA_c392_A3
*1381 ANTENNA_c392_S0
*1382 ANTENNA_c393_CLK
*1383 ANTENNA_c393_RESET_B
*1384 ANTENNA_c393_SCD
*1385 ANTENNA_c394_A2
*1386 ANTENNA_c395_A0
*1387 ANTENNA_c395_A2
*1388 ANTENNA_c395_A3
*1389 ANTENNA_c396_A
*1390 ANTENNA_c396_C_N
*1391 ANTENNA_c396_D_N
*1392 ANTENNA_c397_Y
*1393 ANTENNA_c398_A
*1394 ANTENNA_c398_X
*1395 ANTENNA_c399_A
*1396 ANTENNA_c399_B
*1397 ANTENNA_c400_B
*1398 ANTENNA_c400_X
*1399 ANTENNA_c401_A
*1400 ANTENNA_c401_B
*1401 ANTENNA_c402_B
*1402 ANTENNA_c404_X
*1403 ANTENNA_c405_X
*1404 ANTENNA_c407_B_N
*1405 ANTENNA_c407_Y
*1406 ANTENNA_c409_Y
*1407 ANTENNA_c411_Q
*1408 ANTENNA_c411_Q_N
*1409 ANTENNA_c411_SCD
*1410 ANTENNA_c411_SCE
*1411 ANTENNA_c411_SET_B
*1412 ANTENNA_c413_X
*1413 ANTENNA_c414_A
*1414 ANTENNA_c417_A3
*1415 ANTENNA_c417_S0
*1416 ANTENNA_c417_S1
*1417 ANTENNA_c418_B
*1418 ANTENNA_c418_X
*1419 ANTENNA_c419_C
*1420 ANTENNA_c419_Y
*1421 ANTENNA_c420_B_N
*1422 ANTENNA_c420_X
*1423 ANTENNA_c421_SCD
*1424 ANTENNA_c422_B
*1425 ANTENNA_c422_C
*1426 ANTENNA_c423_B
*1427 ANTENNA_c423_C
*1428 ANTENNA_c424_Y
*1429 ANTENNA_c425_C
*1430 ANTENNA_c426_B
*1431 ANTENNA_c427_A
*1432 ANTENNA_c427_C
*1433 ANTENNA_c428_D
*1434 ANTENNA_c428_Q
*1435 ANTENNA_c428_Q_N
*1436 ANTENNA_c428_SCD
*1437 ANTENNA_c428_SCE
*1438 ANTENNA_c430_C
*1439 ANTENNA_c430_X
*1440 ANTENNA_c431_X
*1441 ANTENNA_c432_C_N
*1442 ANTENNA_c433_SCE
*1443 ANTENNA_c434_B_N
*1444 ANTENNA_c435_B
*1445 ANTENNA_c435_X
*1446 ANTENNA_c436_A1
*1447 ANTENNA_c436_A2
*1448 ANTENNA_c436_A3
*1449 ANTENNA_c436_S0
*1450 ANTENNA_c437_A1
*1451 ANTENNA_c438_A1
*1452 ANTENNA_c438_A3
*1453 ANTENNA_c438_S0
*1454 ANTENNA_c439_CLK_N
*1455 ANTENNA_c443_B
*1456 ANTENNA_c444_B1
*1457 ANTENNA_c444_C1
*1458 ANTENNA_c445_A
*1459 ANTENNA_c445_X
*1460 ANTENNA_c447_A
*1461 ANTENNA_c447_B
*1462 ANTENNA_c447_C_N
*1463 ANTENNA_c448_B
*1464 ANTENNA_c449_B
*1465 ANTENNA_c449_X
*1466 ANTENNA_c450_B
*1467 ANTENNA_c451_B
*1468 ANTENNA_c452_A
*1469 ANTENNA_c452_B
*1470 ANTENNA_c453_Y
*1471 ANTENNA_c454_CLK
*1472 ANTENNA_c454_SCD
*1473 ANTENNA_c454_SET_B
*1474 ANTENNA_c455_D_N
*1475 ANTENNA_c456_A2
*1476 ANTENNA_c456_S0
*1477 ANTENNA_c456_S1
*1478 ANTENNA_c457_D
*1479 ANTENNA_c457_SCE
*1480 ANTENNA_c458_B
*1481 ANTENNA_c458_Y
*1482 ANTENNA_c459_CLK
*1483 ANTENNA_c459_SCD
*1484 ANTENNA_c460_A2
*1485 ANTENNA_c460_A3
*1486 ANTENNA_c460_S0
*1487 ANTENNA_c460_S1
*1488 ANTENNA_c463_D
*1489 ANTENNA_c463_RESET_B
*1490 ANTENNA_c463_SET_B
*1491 ANTENNA_c464_A
*1492 ANTENNA_c464_B
*1493 ANTENNA_c464_X
*1494 ANTENNA_c465_A
*1495 ANTENNA_c465_B_N
*1496 ANTENNA_c467_A_N
*1497 ANTENNA_c467_B
*1498 ANTENNA_c468_A_N
*1499 ANTENNA_c468_B
*1500 ANTENNA_c470_RESET_B
*1501 ANTENNA_c470_SCD
*1502 ANTENNA_c470_SCE
*1503 ANTENNA_c470_SET_B
*1504 ANTENNA_c471_A
*1505 ANTENNA_c473_B_N
*1506 ANTENNA_c474_A1
*1507 ANTENNA_c474_A2
*1508 ANTENNA_c474_A3
*1509 ANTENNA_c474_S1
*1510 ANTENNA_c475_B
*1511 ANTENNA_c476_Q
*1512 ANTENNA_c476_SCD
*1513 ANTENNA_c476_SET_B
*1514 ANTENNA_c477_D
*1515 ANTENNA_c477_SET_B
*1516 ANTENNA_c478_SET_B
*1517 ANTENNA_c479_B1
*1518 ANTENNA_c479_D1
*1519 ANTENNA_c479_X
*1520 ANTENNA_c480_X
*1521 ANTENNA_c481_SET_B
*1522 ANTENNA_c482_C
*1523 ANTENNA_c483_SCD
*1524 ANTENNA_c483_SCE
*1525 ANTENNA_c484_A
*1526 ANTENNA_c485_A
*1527 ANTENNA_c485_B
*1528 ANTENNA_c486_A
*1529 ANTENNA_c486_B
*1530 ANTENNA_c486_C
*1531 ANTENNA_c490_SCD
*1532 ANTENNA_c490_SCE
*1533 ANTENNA_c490_SET_B
*1534 ANTENNA_c491_B
*1535 ANTENNA_c495_A
*1536 ANTENNA_c495_B
*1537 ANTENNA_c496_B
*1538 ANTENNA_c496_C
*1539 ANTENNA_c497_B
*1540 ANTENNA_c497_C_N
*1541 ANTENNA_c497_Y
*1542 ANTENNA_c499_C_N
*1543 ANTENNA_c500_SCE
*1544 ANTENNA_c500_SET_B
*1545 ANTENNA_c501_A
*1546 ANTENNA_c501_Y
*1547 ANTENNA_c502_A_N
*1548 ANTENNA_c502_C
*1549 ANTENNA_c503_A
*1550 ANTENNA_c503_C_N
*1551 ANTENNA_c505_D_N
*1552 ANTENNA_c528_A
*1553 ANTENNA_c528_B
*1554 ANTENNA_c529_B_N
*1555 ANTENNA_c530_Y
*1556 ANTENNA_c532_B
*1557 ANTENNA_c550_A_N
*1558 ANTENNA_c550_B
*1559 ANTENNA_c551_A
*1560 ANTENNA_c554_B
*1561 ANTENNA_c555_A
*1562 ANTENNA_c556_B_N
*1563 ANTENNA_c558_B
*1564 ANTENNA_c560_X
*1565 ANTENNA_c562_C
*1566 ANTENNA_c563_RESET_B
*1567 ANTENNA_c565_A2
*1568 ANTENNA_c565_B1
*1569 ANTENNA_c565_D1
*1570 ANTENNA_c566_A1
*1571 ANTENNA_c566_A2
*1572 ANTENNA_c566_D1
*1573 ANTENNA_c568_RESET_B
*1574 ANTENNA_c568_SCE
*1575 ANTENNA_c569_SCE
*1576 ANTENNA_c570_Q
*1577 ANTENNA_c570_RESET_B
*1578 ANTENNA_c571_C_N
*1579 ANTENNA_c571_D_N
*1580 ANTENNA_c571_X
*1581 ANTENNA_c572_B
*1582 ANTENNA_c573_A
*1583 ANTENNA_c575_A
*1584 ANTENNA_c575_B
*1585 ANTENNA_c577_B
*1586 ANTENNA_c577_C
*1587 ANTENNA_c578_CLK_N
*1588 ANTENNA_c578_D
*1589 ANTENNA_c578_SCD
*1590 ANTENNA_c578_SCE
*1591 ANTENNA_c579_B
*1592 ANTENNA_c581_A
*1593 ANTENNA_c584_A
*1594 ANTENNA_c585_CLK
*1595 ANTENNA_c588_X
*1596 ANTENNA_c589_CLK
*1597 ANTENNA_c589_SCD
*1598 ANTENNA_c589_SCE
*1599 ANTENNA_c589_SET_B
*1600 ANTENNA_c590_A3
*1601 ANTENNA_c590_S0
*1602 ANTENNA_c591_A2
*1603 ANTENNA_c591_B1
*1604 ANTENNA_c592_A1
*1605 ANTENNA_c593_A3
*1606 ANTENNA_c594_A
*1607 ANTENNA_c594_B
*1608 ANTENNA_c594_C
*1609 ANTENNA_c594_X
*1610 ANTENNA_c595_B
*1611 ANTENNA_c596_SCD
*1612 ANTENNA_c596_SCE
*1613 ANTENNA_c598_B
*1614 ANTENNA_c598_Y
*1615 ANTENNA_c599_A
*1616 ANTENNA_c599_C_N
*1617 ANTENNA_c600_CLK
*1618 ANTENNA_c600_D
*1619 ANTENNA_c600_SCD
*1620 ANTENNA_c601_B
*1621 ANTENNA_c601_X
*1622 ANTENNA_c605_CLK_N
*1623 ANTENNA_c605_RESET_B
*1624 ANTENNA_c605_SCE
*1625 ANTENNA_c606_A2
*1626 ANTENNA_c606_D1
*1627 ANTENNA_c606_Y
*1628 ANTENNA_c607_D
*1629 ANTENNA_c608_D
*1630 ANTENNA_c608_SCE
*1631 ANTENNA_c609_A2
*1632 ANTENNA_c609_A3
*1633 ANTENNA_c609_S1
*1634 ANTENNA_c610_C
*1635 ANTENNA_c612_A
*1636 ANTENNA_c613_A
*1637 ANTENNA_c614_CLK_N
*1638 ANTENNA_c614_D
*1639 ANTENNA_c614_SET_B
*1640 ANTENNA_c615_CLK_N
*1641 ANTENNA_c615_SCE
*1642 ANTENNA_c616_B
*1643 ANTENNA_c616_C_N
*1644 ANTENNA_c616_D_N
*1645 ANTENNA_c617_A
*1646 ANTENNA_c617_B
*1647 ANTENNA_c617_C_N
*1648 ANTENNA_c618_A_N
*1649 ANTENNA_c618_C
*1650 ANTENNA_c619_C
*1651 ANTENNA_c621_A_N
*1652 ANTENNA_c621_B
*1653 ANTENNA_c621_C
*1654 ANTENNA_c621_X
*1655 ANTENNA_c623_A
*1656 ANTENNA_c623_B
*1657 ANTENNA_c625_A_N
*1658 ANTENNA_c625_B
*1659 ANTENNA_c627_A_N
*1660 ANTENNA_c627_B
*1661 ANTENNA_c628_SCE
*1662 ANTENNA_c628_SET_B
*1663 ANTENNA_c629_D
*1664 ANTENNA_c62_B1
*1665 ANTENNA_c62_D1
*1666 ANTENNA_c62_Y
*1667 ANTENNA_c630_D
*1668 ANTENNA_c630_SCD
*1669 ANTENNA_c631_D1
*1670 ANTENNA_c632_SET_B
*1671 ANTENNA_c633_SET_B
*1672 ANTENNA_c634_A
*1673 ANTENNA_c634_C
*1674 ANTENNA_c635_A
*1675 ANTENNA_c635_C
*1676 ANTENNA_c636_A2
*1677 ANTENNA_c636_S1
*1678 ANTENNA_c637_SCD
*1679 ANTENNA_c63_A0
*1680 ANTENNA_c63_A3
*1681 ANTENNA_c63_X
*1682 ANTENNA_c64_A0
*1683 ANTENNA_c64_A2
*1684 ANTENNA_c64_S1
*1685 ANTENNA_c65_B
*1686 ANTENNA_c65_C
*1687 ANTENNA_c65_Y
*1688 ANTENNA_c662_B
*1689 ANTENNA_c664_A
*1690 ANTENNA_c665_RESET_B
*1691 ANTENNA_c666_RESET_B
*1692 ANTENNA_c668_B_N
*1693 ANTENNA_c66_B_N
*1694 ANTENNA_c671_D
*1695 ANTENNA_c671_SET_B
*1696 ANTENNA_c672_SET_B
*1697 ANTENNA_c673_A
*1698 ANTENNA_c67_B_N
*1699 ANTENNA_c67_X
*1700 ANTENNA_c680_X
*1701 ANTENNA_c681_SCE
*1702 ANTENNA_c685_SCD
*1703 ANTENNA_c685_SCE
*1704 ANTENNA_c686_Y
*1705 ANTENNA_c688_X
*1706 ANTENNA_c689_A_N
*1707 ANTENNA_c68_A
*1708 ANTENNA_c690_C
*1709 ANTENNA_c691_SCD
*1710 ANTENNA_c691_SCE
*1711 ANTENNA_c693_SCD
*1712 ANTENNA_c694_C
*1713 ANTENNA_c698_SCD
*1714 ANTENNA_c698_SCE
*1715 ANTENNA_c699_D
*1716 ANTENNA_c69_B
*1717 ANTENNA_c703_A0
*1718 ANTENNA_c703_S0
*1719 ANTENNA_c705_C_N
*1720 ANTENNA_c707_B
*1721 ANTENNA_c708_D
*1722 ANTENNA_c70_B
*1723 ANTENNA_c711_C
*1724 ANTENNA_c713_A1
*1725 ANTENNA_c713_B1
*1726 ANTENNA_c714_D
*1727 ANTENNA_c714_SET_B
*1728 ANTENNA_c715_B
*1729 ANTENNA_c716_SET_B
*1730 ANTENNA_c717_C_N
*1731 ANTENNA_c718_B
*1732 ANTENNA_c71_Y
*1733 ANTENNA_c720_SCD
*1734 ANTENNA_c721_A1
*1735 ANTENNA_c721_A3
*1736 ANTENNA_c721_S0
*1737 ANTENNA_c725_A2
*1738 ANTENNA_c726_A0
*1739 ANTENNA_c726_A1
*1740 ANTENNA_c726_A2
*1741 ANTENNA_c726_A3
*1742 ANTENNA_c726_S0
*1743 ANTENNA_c729_A_N
*1744 ANTENNA_c72_B
*1745 ANTENNA_c730_CLK
*1746 ANTENNA_c730_SCE
*1747 ANTENNA_c731_A0
*1748 ANTENNA_c731_A1
*1749 ANTENNA_c731_A2
*1750 ANTENNA_c731_A3
*1751 ANTENNA_c731_S0
*1752 ANTENNA_c732_A
*1753 ANTENNA_c732_C_N
*1754 ANTENNA_c732_D_N
*1755 ANTENNA_c734_A
*1756 ANTENNA_c734_C_N
*1757 ANTENNA_c734_D_N
*1758 ANTENNA_c735_CLK
*1759 ANTENNA_c736_A0
*1760 ANTENNA_c736_A3
*1761 ANTENNA_c738_C_N
*1762 ANTENNA_c739_C_N
*1763 ANTENNA_c740_D1
*1764 ANTENNA_c741_A3
*1765 ANTENNA_c741_S0
*1766 ANTENNA_c741_S1
*1767 ANTENNA_c743_D
*1768 ANTENNA_c744_A_N
*1769 ANTENNA_c745_RESET_B
*1770 ANTENNA_c746_B
*1771 ANTENNA_c747_SET_B
*1772 ANTENNA_c748_A3
*1773 ANTENNA_c748_S1
*1774 ANTENNA_c749_A0
*1775 ANTENNA_c749_A1
*1776 ANTENNA_c749_A2
*1777 ANTENNA_c749_S0
*1778 ANTENNA_c750_A1
*1779 ANTENNA_c750_S0
*1780 ANTENNA_c752_A0
*1781 ANTENNA_c752_A2
*1782 ANTENNA_c752_A3
*1783 ANTENNA_c753_A1
*1784 ANTENNA_c753_A3
*1785 ANTENNA_c754_A1
*1786 ANTENNA_c754_A3
*1787 ANTENNA_c756_A0
*1788 ANTENNA_c75_B_N
*1789 ANTENNA_c77_A_N
*1790 ANTENNA_c78_Y
*1791 ANTENNA_c79_B
*1792 ANTENNA_c79_Y
*1793 ANTENNA_c80_A
*1794 ANTENNA_c82_B_N
*1795 ANTENNA_c82_Y
*1796 ANTENNA_c84_Y
*1797 ANTENNA_c85_B
*1798 ANTENNA_c87_Y
*1799 ANTENNA_c89_A
*1800 ANTENNA_c89_B_N
*1801 ANTENNA_c91_B
*1802 ANTENNA_c95_A
*1803 ANTENNA_c98_Y
*1804 ANTENNA_c99_B
*1805 ANTENNA_c99_X
*1806 ANTENNA_clkbuf_0_clk_A
*1807 ANTENNA_clkbuf_0_clk_X
*1808 ANTENNA_clkbuf_1_1__f_net457_X
*1809 ANTENNA_clkbuf_4_0_0_clk_A
*1810 ANTENNA_clkbuf_4_10_0_clk_A
*1811 ANTENNA_clkbuf_4_10_0_clk_X
*1812 ANTENNA_clkbuf_4_11_0_clk_A
*1813 ANTENNA_clkbuf_4_11_0_clk_X
*1814 ANTENNA_clkbuf_4_12_0_clk_A
*1815 ANTENNA_clkbuf_4_13_0_clk_A
*1816 ANTENNA_clkbuf_4_14_0_clk_A
*1817 ANTENNA_clkbuf_4_15_0_clk_A
*1818 ANTENNA_clkbuf_4_1_0_clk_A