*SPEF "ieee 1481-1999"
*DESIGN "netlist_1"
*DATE "23:13:14 Friday July 19, 2024"
*VENDOR "The OpenROAD Project"
*PROGRAM "OpenROAD"
*VERSION "d423155d69de7f683a23f6916ead418a615ad4ad"
*DESIGN_FLOW "NAME_SCOPE LOCAL" "PIN_CAP NONE"
*DIVIDER /
*DELIMITER :
*BUS_DELIMITER []
*T_UNIT 1 NS
*C_UNIT 1 PF
*R_UNIT 1 OHM
*L_UNIT 1 HENRY

*NAME_MAP
*3 clk
*4 in0
*5 in1
*6 in10
*7 in11
*8 in12
*9 in13
*10 in14
*11 in15
*12 in16
*13 in17
*14 in18
*15 in19
*16 in2
*17 in20
*18 in21
*19 in22
*20 in23
*21 in24
*22 in25
*23 in26
*24 in27
*25 in28
*26 in29
*27 in3
*28 in30
*29 in31
*30 in32
*31 in33
*32 in34
*33 in35
*34 in36
*35 in37
*36 in38
*37 in39
*38 in4
*39 in40
*40 in41
*41 in42
*42 in43
*43 in44
*44 in45
*45 in46
*46 in47
*47 in48
*48 in49
*49 in5
*50 in50
*51 in51
*52 in52
*53 in53
*54 in54
*55 in55
*56 in56
*57 in57
*58 in58
*59 in59
*60 in6
*61 in60
*62 in61
*63 in7
*64 in8
*65 in9
*66 out0
*67 out1
*68 out10
*69 out11
*70 out12
*71 out13
*72 out14
*73 out15
*74 out16
*75 out17
*76 out18
*77 out19
*78 out2
*79 out20
*80 out21
*81 out22
*82 out23
*83 out24
*84 out25
*85 out26
*86 out27
*87 out28
*88 out29
*89 out3
*90 out30
*91 out31
*92 out32
*93 out33
*94 out34
*95 out35
*96 out36
*97 out37
*98 out38
*99 out39
*100 out4
*101 out40
*102 out41
*103 out42
*104 out43
*105 out44
*106 out45
*107 out46
*108 out47
*109 out48
*110 out49
*111 out5
*112 out50
*113 out51
*114 out52
*115 out53
*116 out54
*117 out55
*118 out56
*119 out57
*120 out58
*121 out59
*122 out6
*123 out60
*124 out61
*125 out7
*126 out8
*127 out9
*128 rst
*129 clknet_0_clk
*130 clknet_0_net100
*131 clknet_0_net101
*132 clknet_0_net102
*133 clknet_0_net103
*134 clknet_0_net104
*135 clknet_0_net105
*136 clknet_0_net106
*137 clknet_0_net107
*138 clknet_0_net114
*139 clknet_0_net120
*140 clknet_0_net121
*141 clknet_0_net122
*142 clknet_0_net123
*143 clknet_0_net125
*144 clknet_0_net131
*145 clknet_0_net133
*146 clknet_0_net134
*147 clknet_0_net144
*148 clknet_0_net146
*149 clknet_0_net157
*150 clknet_0_net161
*151 clknet_0_net163
*152 clknet_0_net165
*153 clknet_0_net169
*154 clknet_0_net172
*155 clknet_0_net182
*156 clknet_0_net183
*157 clknet_0_net186
*158 clknet_0_net187
*159 clknet_0_net192
*160 clknet_0_net199
*161 clknet_0_net200
*162 clknet_0_net201
*163 clknet_0_net203
*164 clknet_0_net204
*165 clknet_0_net207
*166 clknet_0_net209
*167 clknet_0_net237
*168 clknet_0_net239
*169 clknet_0_net240
*170 clknet_0_net241
*171 clknet_0_net250
*172 clknet_0_net255
*173 clknet_0_net257
*174 clknet_0_net261
*175 clknet_0_net262
*176 clknet_0_net263
*177 clknet_0_net264
*178 clknet_0_net265
*179 clknet_0_net266
*180 clknet_0_net267
*181 clknet_0_net268
*182 clknet_0_net269
*183 clknet_0_net270
*184 clknet_0_net271
*185 clknet_0_net272
*186 clknet_0_net273
*187 clknet_0_net275
*188 clknet_0_net278
*189 clknet_0_net279
*190 clknet_0_net280
*191 clknet_0_net281
*192 clknet_0_net284
*193 clknet_0_net285
*194 clknet_0_net286
*195 clknet_0_net287
*196 clknet_0_net288
*197 clknet_0_net289
*198 clknet_0_net290
*199 clknet_0_net291
*200 clknet_0_net293
*201 clknet_0_net294
*202 clknet_0_net295
*203 clknet_0_net296
*204 clknet_0_net298
*205 clknet_0_net299
*206 clknet_0_net301
*207 clknet_0_net306
*208 clknet_0_net307
*209 clknet_0_net308
*210 clknet_0_net309
*211 clknet_0_net310
*212 clknet_0_net311
*213 clknet_0_net312
*214 clknet_0_net313
*215 clknet_0_net314
*216 clknet_0_net315
*217 clknet_0_net316
*218 clknet_0_net319
*219 clknet_0_net326
*220 clknet_0_net377
*221 clknet_0_net401
*222 clknet_0_net402
*223 clknet_0_net403
*224 clknet_0_net404
*225 clknet_0_net405
*226 clknet_0_net406
*227 clknet_0_net407
*228 clknet_0_net408
*229 clknet_0_net409
*230 clknet_0_net410
*231 clknet_0_net411
*232 clknet_0_net414
*233 clknet_0_net418
*234 clknet_0_net421
*235 clknet_0_net426
*236 clknet_0_net427
*237 clknet_0_net428
*238 clknet_0_net429
*239 clknet_0_net430
*240 clknet_0_net431
*241 clknet_0_net432
*242 clknet_0_net433
*243 clknet_0_net434
*244 clknet_0_net461
*245 clknet_0_net463
*246 clknet_0_net517
*247 clknet_0_net518
*248 clknet_0_net519
*249 clknet_0_net520
*250 clknet_0_net521
*251 clknet_0_net523
*252 clknet_0_net527
*253 clknet_0_net528
*254 clknet_0_net535
*255 clknet_0_net541
*256 clknet_0_net646
*257 clknet_0_net652
*258 clknet_0_net653
*259 clknet_0_net655
*260 clknet_0_net656
*261 clknet_0_net660
*262 clknet_0_net663
*263 clknet_0_net723
*264 clknet_0_net752
*265 clknet_0_net753
*266 clknet_0_net754
*267 clknet_0_net768
*268 clknet_0_net769
*269 clknet_0_net770
*270 clknet_0_net788
*271 clknet_0_net789
*272 clknet_0_net790
*273 clknet_0_net806
*274 clknet_0_net807
*275 clknet_0_net808
*276 clknet_0_net890
*277 clknet_0_net893
*278 clknet_0_net895
*279 clknet_0_net896
*280 clknet_0_net897
*281 clknet_0_net898
*282 clknet_0_net900
*283 clknet_0_net901
*284 clknet_0_net902
*285 clknet_0_net905
*286 clknet_0_net96
*287 clknet_0_net97
*288 clknet_0_net98
*289 clknet_1_0__leaf_net100
*290 clknet_1_0__leaf_net101
*291 clknet_1_0__leaf_net102
*292 clknet_1_0__leaf_net103
*293 clknet_1_0__leaf_net104
*294 clknet_1_0__leaf_net105
*295 clknet_1_0__leaf_net106
*296 clknet_1_0__leaf_net107
*297 clknet_1_0__leaf_net114
*298 clknet_1_0__leaf_net120
*299 clknet_1_0__leaf_net121
*300 clknet_1_0__leaf_net122
*301 clknet_1_0__leaf_net123
*302 clknet_1_0__leaf_net125
*303 clknet_1_0__leaf_net131
*304 clknet_1_0__leaf_net133
*305 clknet_1_0__leaf_net134
*306 clknet_1_0__leaf_net144
*307 clknet_1_0__leaf_net146
*308 clknet_1_0__leaf_net157
*309 clknet_1_0__leaf_net161
*310 clknet_1_0__leaf_net163
*311 clknet_1_0__leaf_net165
*312 clknet_1_0__leaf_net169
*313 clknet_1_0__leaf_net172
*314 clknet_1_0__leaf_net182
*315 clknet_1_0__leaf_net183
*316 clknet_1_0__leaf_net186
*317 clknet_1_0__leaf_net187
*318 clknet_1_0__leaf_net192
*319 clknet_1_0__leaf_net199
*320 clknet_1_0__leaf_net200
*321 clknet_1_0__leaf_net201
*322 clknet_1_0__leaf_net203
*323 clknet_1_0__leaf_net204
*324 clknet_1_0__leaf_net207
*325 clknet_1_0__leaf_net209
*326 clknet_1_0__leaf_net237
*327 clknet_1_0__leaf_net239
*328 clknet_1_0__leaf_net240
*329 clknet_1_0__leaf_net241
*330 clknet_1_0__leaf_net250
*331 clknet_1_0__leaf_net255
*332 clknet_1_0__leaf_net257
*333 clknet_1_0__leaf_net261
*334 clknet_1_0__leaf_net262
*335 clknet_1_0__leaf_net263
*336 clknet_1_0__leaf_net264
*337 clknet_1_0__leaf_net265
*338 clknet_1_0__leaf_net266
*339 clknet_1_0__leaf_net267
*340 clknet_1_0__leaf_net268
*341 clknet_1_0__leaf_net269
*342 clknet_1_0__leaf_net270
*343 clknet_1_0__leaf_net271
*344 clknet_1_0__leaf_net272
*345 clknet_1_0__leaf_net273
*346 clknet_1_0__leaf_net275
*347 clknet_1_0__leaf_net278
*348 clknet_1_0__leaf_net279
*349 clknet_1_0__leaf_net280
*350 clknet_1_0__leaf_net281
*351 clknet_1_0__leaf_net284
*352 clknet_1_0__leaf_net285
*353 clknet_1_0__leaf_net286
*354 clknet_1_0__leaf_net287
*355 clknet_1_0__leaf_net288
*356 clknet_1_0__leaf_net289
*357 clknet_1_0__leaf_net290
*358 clknet_1_0__leaf_net291
*359 clknet_1_0__leaf_net293
*360 clknet_1_0__leaf_net294
*361 clknet_1_0__leaf_net295
*362 clknet_1_0__leaf_net296
*363 clknet_1_0__leaf_net298
*364 clknet_1_0__leaf_net299
*365 clknet_1_0__leaf_net301
*366 clknet_1_0__leaf_net306
*367 clknet_1_0__leaf_net307
*368 clknet_1_0__leaf_net308
*369 clknet_1_0__leaf_net309
*370 clknet_1_0__leaf_net310
*371 clknet_1_0__leaf_net311
*372 clknet_1_0__leaf_net312
*373 clknet_1_0__leaf_net313
*374 clknet_1_0__leaf_net314
*375 clknet_1_0__leaf_net315
*376 clknet_1_0__leaf_net316
*377 clknet_1_0__leaf_net319
*378 clknet_1_0__leaf_net326
*379 clknet_1_0__leaf_net377
*380 clknet_1_0__leaf_net401
*381 clknet_1_0__leaf_net402
*382 clknet_1_0__leaf_net403
*383 clknet_1_0__leaf_net404
*384 clknet_1_0__leaf_net405
*385 clknet_1_0__leaf_net406
*386 clknet_1_0__leaf_net407
*387 clknet_1_0__leaf_net408
*388 clknet_1_0__leaf_net409
*389 clknet_1_0__leaf_net410
*390 clknet_1_0__leaf_net411
*391 clknet_1_0__leaf_net414
*392 clknet_1_0__leaf_net418
*393 clknet_1_0__leaf_net421
*394 clknet_1_0__leaf_net426
*395 clknet_1_0__leaf_net427
*396 clknet_1_0__leaf_net428
*397 clknet_1_0__leaf_net429
*398 clknet_1_0__leaf_net430
*399 clknet_1_0__leaf_net431
*400 clknet_1_0__leaf_net432
*401 clknet_1_0__leaf_net433
*402 clknet_1_0__leaf_net434
*403 clknet_1_0__leaf_net461
*404 clknet_1_0__leaf_net463
*405 clknet_1_0__leaf_net517
*406 clknet_1_0__leaf_net518
*407 clknet_1_0__leaf_net519
*408 clknet_1_0__leaf_net520
*409 clknet_1_0__leaf_net521
*410 clknet_1_0__leaf_net523
*411 clknet_1_0__leaf_net527
*412 clknet_1_0__leaf_net528
*413 clknet_1_0__leaf_net535
*414 clknet_1_0__leaf_net541
*415 clknet_1_0__leaf_net646
*416 clknet_1_0__leaf_net652
*417 clknet_1_0__leaf_net653
*418 clknet_1_0__leaf_net655
*419 clknet_1_0__leaf_net656
*420 clknet_1_0__leaf_net660
*421 clknet_1_0__leaf_net663
*422 clknet_1_0__leaf_net723
*423 clknet_1_0__leaf_net752
*424 clknet_1_0__leaf_net753
*425 clknet_1_0__leaf_net754
*426 clknet_1_0__leaf_net768
*427 clknet_1_0__leaf_net769
*428 clknet_1_0__leaf_net770
*429 clknet_1_0__leaf_net788
*430 clknet_1_0__leaf_net789
*431 clknet_1_0__leaf_net790
*432 clknet_1_0__leaf_net806
*433 clknet_1_0__leaf_net807
*434 clknet_1_0__leaf_net808
*435 clknet_1_0__leaf_net890
*436 clknet_1_0__leaf_net893
*437 clknet_1_0__leaf_net895
*438 clknet_1_0__leaf_net896
*439 clknet_1_0__leaf_net897
*440 clknet_1_0__leaf_net898
*441 clknet_1_0__leaf_net900
*442 clknet_1_0__leaf_net901
*443 clknet_1_0__leaf_net902
*444 clknet_1_0__leaf_net905
*445 clknet_1_0__leaf_net96
*446 clknet_1_0__leaf_net97
*447 clknet_1_0__leaf_net98
*448 clknet_1_1__leaf_net100
*449 clknet_1_1__leaf_net101
*450 clknet_1_1__leaf_net102
*451 clknet_1_1__leaf_net103
*452 clknet_1_1__leaf_net104
*453 clknet_1_1__leaf_net105
*454 clknet_1_1__leaf_net106
*455 clknet_1_1__leaf_net107
*456 clknet_1_1__leaf_net114
*457 clknet_1_1__leaf_net120
*458 clknet_1_1__leaf_net121
*459 clknet_1_1__leaf_net122
*460 clknet_1_1__leaf_net123
*461 clknet_1_1__leaf_net125
*462 clknet_1_1__leaf_net131
*463 clknet_1_1__leaf_net133
*464 clknet_1_1__leaf_net134
*465 clknet_1_1__leaf_net144
*466 clknet_1_1__leaf_net146
*467 clknet_1_1__leaf_net157
*468 clknet_1_1__leaf_net161
*469 clknet_1_1__leaf_net163
*470 clknet_1_1__leaf_net165
*471 clknet_1_1__leaf_net169
*472 clknet_1_1__leaf_net172
*473 clknet_1_1__leaf_net182
*474 clknet_1_1__leaf_net183
*475 clknet_1_1__leaf_net186
*476 clknet_1_1__leaf_net187
*477 clknet_1_1__leaf_net192
*478 clknet_1_1__leaf_net199
*479 clknet_1_1__leaf_net200
*480 clknet_1_1__leaf_net201
*481 clknet_1_1__leaf_net203
*482 clknet_1_1__leaf_net204
*483 clknet_1_1__leaf_net207
*484 clknet_1_1__leaf_net209
*485 clknet_1_1__leaf_net237
*486 clknet_1_1__leaf_net239
*487 clknet_1_1__leaf_net240
*488 clknet_1_1__leaf_net241
*489 clknet_1_1__leaf_net250
*490 clknet_1_1__leaf_net255
*491 clknet_1_1__leaf_net257
*492 clknet_1_1__leaf_net261
*493 clknet_1_1__leaf_net262
*494 clknet_1_1__leaf_net263
*495 clknet_1_1__leaf_net264
*496 clknet_1_1__leaf_net265
*497 clknet_1_1__leaf_net266
*498 clknet_1_1__leaf_net267
*499 clknet_1_1__leaf_net268
*500 clknet_1_1__leaf_net269
*501 clknet_1_1__leaf_net270
*502 clknet_1_1__leaf_net271
*503 clknet_1_1__leaf_net272
*504 clknet_1_1__leaf_net273
*505 clknet_1_1__leaf_net275
*506 clknet_1_1__leaf_net278
*507 clknet_1_1__leaf_net279
*508 clknet_1_1__leaf_net280
*509 clknet_1_1__leaf_net281
*510 clknet_1_1__leaf_net284
*511 clknet_1_1__leaf_net285
*512 clknet_1_1__leaf_net286
*513 clknet_1_1__leaf_net287
*514 clknet_1_1__leaf_net288
*515 clknet_1_1__leaf_net289
*516 clknet_1_1__leaf_net290
*517 clknet_1_1__leaf_net291
*518 clknet_1_1__leaf_net293
*519 clknet_1_1__leaf_net294
*520 clknet_1_1__leaf_net295
*521 clknet_1_1__leaf_net296
*522 clknet_1_1__leaf_net298
*523 clknet_1_1__leaf_net299
*524 clknet_1_1__leaf_net301
*525 clknet_1_1__leaf_net306
*526 clknet_1_1__leaf_net307
*527 clknet_1_1__leaf_net308
*528 clknet_1_1__leaf_net309
*529 clknet_1_1__leaf_net310
*530 clknet_1_1__leaf_net311
*531 clknet_1_1__leaf_net312
*532 clknet_1_1__leaf_net313
*533 clknet_1_1__leaf_net314
*534 clknet_1_1__leaf_net315
*535 clknet_1_1__leaf_net316
*536 clknet_1_1__leaf_net319
*537 clknet_1_1__leaf_net326
*538 clknet_1_1__leaf_net377
*539 clknet_1_1__leaf_net401
*540 clknet_1_1__leaf_net402
*541 clknet_1_1__leaf_net403
*542 clknet_1_1__leaf_net404
*543 clknet_1_1__leaf_net405
*544 clknet_1_1__leaf_net406
*545 clknet_1_1__leaf_net407
*546 clknet_1_1__leaf_net408
*547 clknet_1_1__leaf_net409
*548 clknet_1_1__leaf_net410
*549 clknet_1_1__leaf_net411
*550 clknet_1_1__leaf_net414
*551 clknet_1_1__leaf_net418
*552 clknet_1_1__leaf_net421
*553 clknet_1_1__leaf_net426
*554 clknet_1_1__leaf_net427
*555 clknet_1_1__leaf_net428
*556 clknet_1_1__leaf_net429
*557 clknet_1_1__leaf_net430
*558 clknet_1_1__leaf_net431
*559 clknet_1_1__leaf_net432
*560 clknet_1_1__leaf_net433
*561 clknet_1_1__leaf_net434
*562 clknet_1_1__leaf_net461
*563 clknet_1_1__leaf_net463
*564 clknet_1_1__leaf_net517
*565 clknet_1_1__leaf_net518
*566 clknet_1_1__leaf_net519
*567 clknet_1_1__leaf_net520
*568 clknet_1_1__leaf_net521
*569 clknet_1_1__leaf_net523
*570 clknet_1_1__leaf_net527
*571 clknet_1_1__leaf_net528
*572 clknet_1_1__leaf_net535
*573 clknet_1_1__leaf_net541
*574 clknet_1_1__leaf_net646
*575 clknet_1_1__leaf_net652
*576 clknet_1_1__leaf_net653
*577 clknet_1_1__leaf_net655
*578 clknet_1_1__leaf_net656
*579 clknet_1_1__leaf_net660
*580 clknet_1_1__leaf_net663
*581 clknet_1_1__leaf_net723
*582 clknet_1_1__leaf_net752
*583 clknet_1_1__leaf_net753
*584 clknet_1_1__leaf_net754
*585 clknet_1_1__leaf_net768
*586 clknet_1_1__leaf_net769
*587 clknet_1_1__leaf_net770
*588 clknet_1_1__leaf_net788
*589 clknet_1_1__leaf_net789
*590 clknet_1_1__leaf_net790
*591 clknet_1_1__leaf_net806
*592 clknet_1_1__leaf_net807
*593 clknet_1_1__leaf_net808
*594 clknet_1_1__leaf_net890
*595 clknet_1_1__leaf_net893
*596 clknet_1_1__leaf_net895
*597 clknet_1_1__leaf_net896
*598 clknet_1_1__leaf_net897
*599 clknet_1_1__leaf_net898
*600 clknet_1_1__leaf_net900
*601 clknet_1_1__leaf_net901
*602 clknet_1_1__leaf_net902
*603 clknet_1_1__leaf_net905
*604 clknet_1_1__leaf_net96
*605 clknet_1_1__leaf_net97
*606 clknet_1_1__leaf_net98
*607 clknet_4_0_0_clk
*608 clknet_4_10_0_clk
*609 clknet_4_11_0_clk
*610 clknet_4_12_0_clk
*611 clknet_4_13_0_clk
*612 clknet_4_14_0_clk
*613 clknet_4_15_0_clk
*614 clknet_4_1_0_clk
*615 clknet_4_2_0_clk
*616 clknet_4_3_0_clk
*617 clknet_4_4_0_clk
*618 clknet_4_5_0_clk
*619 clknet_4_6_0_clk
*620 clknet_4_7_0_clk
*621 clknet_4_8_0_clk
*622 clknet_4_9_0_clk
*623 net0
*624 net1
*625 net10
*626 net100
*627 net101
*628 net102
*629 net103
*630 net104
*631 net105
*632 net106
*633 net107
*634 net108
*635 net109
*636 net11
*637 net110
*638 net111
*639 net112
*640 net113
*641 net114
*642 net115
*643 net116
*644 net117
*645 net118
*646 net119
*647 net12
*648 net120
*649 net121
*650 net122
*651 net123
*652 net124
*653 net125
*654 net126
*655 net127
*656 net128
*657 net129
*658 net13
*659 net130
*660 net131
*661 net132
*662 net133
*663 net134
*664 net135
*665 net136
*666 net137
*667 net138
*668 net139
*669 net14
*670 net140
*671 net141
*672 net142
*673 net143
*674 net144
*675 net145
*676 net146
*677 net147
*678 net148
*679 net149
*680 net15
*681 net150
*682 net151
*683 net152
*684 net153
*685 net154
*686 net155
*687 net156
*688 net157
*689 net158
*690 net159
*691 net16
*692 net160
*693 net161
*694 net162
*695 net163
*696 net164
*697 net165
*698 net166
*699 net167
*700 net168
*701 net169
*702 net17
*703 net170
*704 net171
*705 net172
*706 net173
*707 net174
*708 net175
*709 net176
*710 net177
*711 net178
*712 net179
*713 net18
*714 net180
*715 net181
*716 net182
*717 net183
*718 net184
*719 net185
*720 net186
*721 net187
*722 net188
*723 net189
*724 net19
*725 net190
*726 net191
*727 net192
*728 net193
*729 net194
*730 net195
*731 net196
*732 net197
*733 net198
*734 net199
*735 net2
*736 net20
*737 net200
*738 net201
*739 net202
*740 net203
*741 net204
*742 net205
*743 net206
*744 net207
*745 net208
*746 net209
*747 net21
*748 net210
*749 net211
*750 net212
*751 net213
*752 net214
*753 net215
*754 net216
*755 net217
*756 net218
*757 net219
*758 net22
*759 net220
*760 net221
*761 net222
*762 net223
*763 net224
*764 net225
*765 net226
*766 net227
*767 net228
*768 net229
*769 net23
*770 net230
*771 net231
*772 net232
*773 net233
*774 net234
*775 net235
*776 net236
*777 net237
*778 net238
*779 net239
*780 net24
*781 net240
*782 net241
*783 net242
*784 net243
*785 net244
*786 net245
*787 net246
*788 net247
*789 net248
*790 net249
*791 net25
*792 net250
*793 net251
*794 net252
*795 net253
*796 net254
*797 net255
*798 net256
*799 net257
*800 net258
*801 net259
*802 net26
*803 net260
*804 net261
*805 net262
*806 net263
*807 net264
*808 net265
*809 net266
*810 net267
*811 net268
*812 net269
*813 net27
*814 net270
*815 net271
*816 net272
*817 net273
*818 net274
*819 net275
*820 net276
*821 net277
*822 net278
*823 net279
*824 net28
*825 net280
*826 net281
*827 net282
*828 net283
*829 net284
*830 net285
*831 net286
*832 net287
*833 net288
*834 net289
*835 net29
*836 net290
*837 net291
*838 net292
*839 net293
*840 net294
*841 net295
*842 net296
*843 net297
*844 net298
*845 net299
*846 net3
*847 net30
*848 net300
*849 net301
*850 net302
*851 net303
*852 net304
*853 net305
*854 net306
*855 net307
*856 net308
*857 net309
*858 net31
*859 net310
*860 net311
*861 net312
*862 net313
*863 net314
*864 net315
*865 net316
*866 net317
*867 net318
*868 net319
*869 net32
*870 net320
*871 net321
*872 net322
*873 net323
*874 net324
*875 net325
*876 net326
*877 net327
*878 net328
*879 net329
*880 net33
*881 net330
*882 net331
*883 net332
*884 net333
*885 net334
*886 net335
*887 net336
*888 net337
*889 net338
*890 net339
*891 net34
*892 net340
*893 net341
*894 net342
*895 net343
*896 net344
*897 net345
*898 net346
*899 net347
*900 net348
*901 net349
*902 net35
*903 net350
*904 net351
*905 net352
*906 net353
*907 net354
*908 net355
*909 net356
*910 net357
*911 net358
*912 net359
*913 net36
*914 net360
*915 net361
*916 net362
*917 net363
*918 net364
*919 net365
*920 net366
*921 net367
*922 net368
*923 net369
*924 net37
*925 net370
*926 net371
*927 net372
*928 net373
*929 net374
*930 net375
*931 net376
*932 net377
*933 net378
*934 net379
*935 net38
*936 net380
*937 net381
*938 net382
*939 net383
*940 net384
*941 net385
*942 net386
*943 net387
*944 net388
*945 net389
*946 net39
*947 net390
*948 net391
*949 net392
*950 net393
*951 net394
*952 net395
*953 net396
*954 net397
*955 net398
*956 net399
*957 net4
*958 net40
*959 net400
*960 net401
*961 net402
*962 net403
*963 net404
*964 net405
*965 net406
*966 net407
*967 net408
*968 net409
*969 net41
*970 net410
*971 net411
*972 net412
*973 net413
*974 net414
*975 net415
*976 net416
*977 net417
*978 net418
*979 net419
*980 net42
*981 net420
*982 net421
*983 net422
*984 net423
*985 net424
*986 net425
*987 net426
*988 net427
*989 net428
*990 net429
*991 net43
*992 net430
*993 net431
*994 net432
*995 net433
*996 net434
*997 net435
*998 net436
*999 net437
*1000 net438
*1001 net439
*1002 net44
*1003 net440
*1004 net441
*1005 net442
*1006 net443
*1007 net444
*1008 net445
*1009 net446
*1010 net447
*1011 net448
*1012 net449
*1013 net45
*1014 net450
*1015 net451
*1016 net452
*1017 net453
*1018 net454
*1019 net455
*1020 net456
*1021 net457
*1022 net458
*1023 net459
*1024 net46
*1025 net460
*1026 net461
*1027 net462
*1028 net463
*1029 net464
*1030 net465
*1031 net466
*1032 net467
*1033 net468
*1034 net469
*1035 net47
*1036 net470
*1037 net471
*1038 net472
*1039 net473
*1040 net474
*1041 net475
*1042 net476
*1043 net477
*1044 net478
*1045 net479
*1046 net48
*1047 net480
*1048 net481
*1049 net482
*1050 net483
*1051 net484
*1052 net485
*1053 net486
*1054 net487
*1055 net488
*1056 net489
*1057 net49
*1058 net490
*1059 net491
*1060 net492
*1061 net493
*1062 net494
*1063 net495
*1064 net496
*1065 net497
*1066 net498
*1067 net499
*1068 net5
*1069 net50
*1070 net500
*1071 net501
*1072 net502
*1073 net503
*1074 net504
*1075 net505
*1076 net506
*1077 net507
*1078 net508
*1079 net509
*1080 net51
*1081 net510
*1082 net511
*1083 net512
*1084 net513
*1085 net514
*1086 net515
*1087 net516
*1088 net517
*1089 net518
*1090 net519
*1091 net52
*1092 net520
*1093 net521
*1094 net522
*1095 net523
*1096 net524
*1097 net525
*1098 net526
*1099 net527
*1100 net528
*1101 net529
*1102 net53
*1103 net530
*1104 net531
*1105 net532
*1106 net533
*1107 net534
*1108 net535
*1109 net536
*1110 net537
*1111 net538
*1112 net539
*1113 net54
*1114 net540
*1115 net541
*1116 net542
*1117 net543
*1118 net544
*1119 net545
*1120 net546
*1121 net547
*1122 net548
*1123 net549
*1124 net55
*1125 net550
*1126 net551
*1127 net552
*1128 net553
*1129 net554
*1130 net555
*1131 net556
*1132 net557
*1133 net558
*1134 net559
*1135 net56
*1136 net560
*1137 net561
*1138 net562
*1139 net563
*1140 net564
*1141 net565
*1142 net566
*1143 net567
*1144 net568
*1145 net569
*1146 net57
*1147 net570
*1148 net571
*1149 net572
*1150 net573
*1151 net574
*1152 net575
*1153 net576
*1154 net577
*1155 net578
*1156 net579
*1157 net58
*1158 net580
*1159 net581
*1160 net582
*1161 net583
*1162 net584
*1163 net585
*1164 net586
*1165 net587
*1166 net588
*1167 net589
*1168 net59
*1169 net590
*1170 net591
*1171 net592
*1172 net593
*1173 net594
*1174 net595
*1175 net596
*1176 net597
*1177 net598
*1178 net599
*1179 net6
*1180 net60
*1181 net600
*1182 net601
*1183 net602
*1184 net603
*1185 net604
*1186 net605
*1187 net606
*1188 net607
*1189 net608
*1190 net609
*1191 net61
*1192 net610
*1193 net611
*1194 net612
*1195 net613
*1196 net614
*1197 net615
*1198 net616
*1199 net617
*1200 net618
*1201 net619
*1202 net62
*1203 net620
*1204 net621
*1205 net622
*1206 net623
*1207 net624
*1208 net625
*1209 net626
*1210 net627
*1211 net628
*1212 net629
*1213 net63
*1214 net630
*1215 net631
*1216 net632
*1217 net633
*1218 net634
*1219 net635
*1220 net636
*1221 net637
*1222 net638
*1223 net639
*1224 net64
*1225 net640
*1226 net641
*1227 net642
*1228 net643
*1229 net644
*1230 net645
*1231 net646
*1232 net647
*1233 net648
*1234 net649
*1235 net65
*1236 net650
*1237 net651
*1238 net652
*1239 net653
*1240 net654
*1241 net655
*1242 net656
*1243 net657
*1244 net658
*1245 net659
*1246 net66
*1247 net660
*1248 net661
*1249 net662
*1250 net663
*1251 net664
*1252 net665
*1253 net666
*1254 net667
*1255 net668
*1256 net669
*1257 net67
*1258 net670
*1259 net671
*1260 net672
*1261 net673
*1262 net674
*1263 net675
*1264 net676
*1265 net677
*1266 net678
*1267 net679
*1268 net68
*1269 net680
*1270 net681
*1271 net682
*1272 net683
*1273 net684
*1274 net685
*1275 net686
*1276 net687
*1277 net688
*1278 net689
*1279 net69
*1280 net690
*1281 net691
*1282 net692
*1283 net693
*1284 net694
*1285 net695
*1286 net696
*1287 net697
*1288 net698
*1289 net699
*1290 net7
*1291 net70
*1292 net700
*1293 net701
*1294 net702
*1295 net703
*1296 net704
*1297 net705
*1298 net706
*1299 net707
*1300 net708
*1301 net709
*1302 net71
*1303 net710
*1304 net711
*1305 net712
*1306 net713
*1307 net714
*1308 net715
*1309 net716
*1310 net717
*1311 net718
*1312 net719
*1313 net72
*1314 net720
*1315 net721
*1316 net722
*1317 net723
*1318 net724
*1319 net725
*1320 net726
*1321 net727
*1322 net728
*1323 net729
*1324 net73
*1325 net730
*1326 net731
*1327 net732
*1328 net733
*1329 net734
*1330 net735
*1331 net736
*1332 net737
*1333 net738
*1334 net739
*1335 net74
*1336 net740
*1337 net741
*1338 net742
*1339 net743
*1340 net744
*1341 net745
*1342 net746
*1343 net747
*1344 net748
*1345 net749
*1346 net75
*1347 net750
*1348 net751
*1349 net752
*1350 net753
*1351 net754
*1352 net755
*1353 net756
*1354 net757
*1355 net758
*1356 net759
*1357 net76
*1358 net760
*1359 net761
*1360 net762
*1361 net763
*1362 net764
*1363 net765
*1364 net766
*1365 net767
*1366 net768
*1367 net769
*1368 net77
*1369 net770
*1370 net771
*1371 net772
*1372 net773
*1373 net774
*1374 net775
*1375 net776
*1376 net777
*1377 net778
*1378 net779
*1379 net78
*1380 net780
*1381 net781
*1382 net782
*1383 net783
*1384 net784
*1385 net785
*1386 net786
*1387 net787
*1388 net788
*1389 net789
*1390 net79
*1391 net790
*1392 net791
*1393 net792
*1394 net793
*1395 net794
*1396 net795
*1397 net796
*1398 net797
*1399 net798
*1400 net799
*1401 net8
*1402 net80
*1403 net800
*1404 net801
*1405 net802
*1406 net803
*1407 net804
*1408 net805
*1409 net806
*1410 net807
*1411 net808
*1412 net809
*1413 net81
*1414 net810
*1415 net811
*1416 net812
*1417 net813
*1418 net814
*1419 net815
*1420 net816
*1421 net817
*1422 net818
*1423 net819
*1424 net82
*1425 net820
*1426 net821
*1427 net822
*1428 net823
*1429 net824
*1430 net825
*1431 net826
*1432 net827
*1433 net828
*1434 net829
*1435 net83
*1436 net830
*1437 net831
*1438 net832
*1439 net833
*1440 net834
*1441 net835
*1442 net836
*1443 net837
*1444 net838
*1445 net839
*1446 net84
*1447 net840
*1448 net841
*1449 net842
*1450 net843
*1451 net844
*1452 net845
*1453 net846
*1454 net847
*1455 net848
*1456 net849
*1457 net85
*1458 net850
*1459 net851
*1460 net852
*1461 net853
*1462 net854
*1463 net855
*1464 net856
*1465 net857
*1466 net858
*1467 net859
*1468 net86
*1469 net860
*1470 net861
*1471 net862
*1472 net863
*1473 net864
*1474 net865
*1475 net866
*1476 net867
*1477 net868
*1478 net869
*1479 net87
*1480 net870
*1481 net871
*1482 net872
*1483 net873
*1484 net874
*1485 net875
*1486 net876
*1487 net877
*1488 net878
*1489 net879
*1490 net88
*1491 net880
*1492 net881
*1493 net882
*1494 net883
*1495 net884
*1496 net885
*1497 net886
*1498 net887
*1499 net888
*1500 net889
*1501 net89
*1502 net890
*1503 net891
*1504 net892
*1505 net893
*1506 net894
*1507 net895
*1508 net896
*1509 net897
*1510 net898
*1511 net899
*1512 net9
*1513 net90
*1514 net900
*1515 net901
*1516 net902
*1517 net903
*1518 net904
*1519 net905
*1520 net906
*1521 net907
*1522 net908
*1523 net909
*1524 net91
*1525 net910
*1526 net911
*1527 net912
*1528 net913
*1529 net914
*1530 net915
*1531 net916
*1532 net917
*1533 net918
*1534 net919
*1535 net92
*1536 net920
*1537 net921
*1538 net922
*1539 net923
*1540 net924
*1541 net925
*1542 net926
*1543 net927
*1544 net928
*1545 net929
*1546 net93
*1547 net930
*1548 net931
*1549 net932
*1550 net933
*1551 net934
*1552 net935
*1553 net936
*1554 net937
*1555 net938
*1556 net939
*1557 net94
*1558 net940
*1559 net941
*1560 net942
*1561 net943
*1562 net944
*1563 net945
*1564 net946
*1565 net947
*1566 net948
*1567 net949
*1568 net95
*1569 net950
*1570 net951
*1571 net952
*1572 net953
*1573 net954
*1574 net955
*1575 net956
*1576 net957
*1577 net958
*1578 net959
*1579 net96
*1580 net960
*1581 net961
*1582 net962
*1583 net963
*1584 net964
*1585 net965
*1586 net966
*1587 net967
*1588 net968
*1589 net969
*1590 net97
*1591 net970
*1592 net971
*1593 net972
*1594 net973
*1595 net98
*1596 net99
*1597 ANTENNA_c102_CLK
*1598 ANTENNA_c103_S1
*1599 ANTENNA_c107_CLK_N
*1600 ANTENNA_c122_CLK_N
*1601 ANTENNA_c125_CLK
*1602 ANTENNA_c125_D
*1603 ANTENNA_c167_CLK_N
*1604 ANTENNA_c168_CLK_N
*1605 ANTENNA_c171_S0
*1606 ANTENNA_c172_S1
*1607 ANTENNA_c186_X
*1608 ANTENNA_c187_B1
*1609 ANTENNA_c188_A3
*1610 ANTENNA_c190_A4
*1611 ANTENNA_c191_B1
*1612 ANTENNA_c192_CLK
*1613 ANTENNA_c193_A3
*1614 ANTENNA_c194_CLK_N
*1615 ANTENNA_c197_A3
*1616 ANTENNA_c208_CLK
*1617 ANTENNA_c209_S1
*1618 ANTENNA_c221_X
*1619 ANTENNA_c222_A
*1620 ANTENNA_c222_X
*1621 ANTENNA_c223_B1_N
*1622 ANTENNA_c225_CLK_N
*1623 ANTENNA_c225_SCE
*1624 ANTENNA_c229_CLK
*1625 ANTENNA_c229_RESET_B
*1626 ANTENNA_c229_SCD
*1627 ANTENNA_c230_CLK_N
*1628 ANTENNA_c230_SET_B
*1629 ANTENNA_c231_A3
*1630 ANTENNA_c231_S1
*1631 ANTENNA_c232_CLK
*1632 ANTENNA_c232_SCD
*1633 ANTENNA_c238_A0
*1634 ANTENNA_c239_A2
*1635 ANTENNA_c246_CLK
*1636 ANTENNA_c246_SCD
*1637 ANTENNA_c250_B1
*1638 ANTENNA_c257_A0
*1639 ANTENNA_c258_CLK_N
*1640 ANTENNA_c258_D
*1641 ANTENNA_c262_S0
*1642 ANTENNA_c273_CLK_N
*1643 ANTENNA_c274_CLK_N
*1644 ANTENNA_c278_CLK
*1645 ANTENNA_c283_S0
*1646 ANTENNA_c283_X
*1647 ANTENNA_c284_A2
*1648 ANTENNA_c285_A1
*1649 ANTENNA_c285_A3
*1650 ANTENNA_c292_CLK_N
*1651 ANTENNA_c292_SET_B
*1652 ANTENNA_c293_CLK_N
*1653 ANTENNA_c298_S1
*1654 ANTENNA_c299_B1
*1655 ANTENNA_c300_S1
*1656 ANTENNA_c301_A3
*1657 ANTENNA_c303_A0
*1658 ANTENNA_c310_A1
*1659 ANTENNA_c314_A1
*1660 ANTENNA_c317_A3
*1661 ANTENNA_c321_CLK
*1662 ANTENNA_c323_CLK
*1663 ANTENNA_c330_A
*1664 ANTENNA_c331_A
*1665 ANTENNA_c354_B
*1666 ANTENNA_c357_B1
*1667 ANTENNA_c358_A1
*1668 ANTENNA_c359_S
*1669 ANTENNA_c360_A3
*1670 ANTENNA_c361_B1_N
*1671 ANTENNA_c362_A1
*1672 ANTENNA_c363_CLK
*1673 ANTENNA_c363_SET_B
*1674 ANTENNA_c364_A1
*1675 ANTENNA_c366_CLK_N
*1676 ANTENNA_c366_SCE
*1677 ANTENNA_c367_B1
*1678 ANTENNA_c369_S0
*1679 ANTENNA_c373_S1
*1680 ANTENNA_c392_A
*1681 ANTENNA_c393_B
*1682 ANTENNA_c394_B1_N
*1683 ANTENNA_c395_A4
*1684 ANTENNA_c395_B1
*1685 ANTENNA_c397_X
*1686 ANTENNA_c419_B
*1687 ANTENNA_c420_B1
*1688 ANTENNA_c421_B1
*1689 ANTENNA_c422_S
*1690 ANTENNA_c424_B1
*1691 ANTENNA_c426_CLK_N
*1692 ANTENNA_c426_SCE
*1693 ANTENNA_c429_CLK
*1694 ANTENNA_c431_CLK
*1695 ANTENNA_c435_CLK_N
*1696 ANTENNA_c435_SCE
*1697 ANTENNA_c437_CLK_N
*1698 ANTENNA_c437_SCE
*1699 ANTENNA_c440_A
*1700 ANTENNA_c441_A
*1701 ANTENNA_c445_A2
*1702 ANTENNA_c481_A
*1703 ANTENNA_c488_A
*1704 ANTENNA_c489_A2
*1705 ANTENNA_c490_B1
*1706 ANTENNA_c491_B1_N
*1707 ANTENNA_c493_B1
*1708 ANTENNA_c494_B1
*1709 ANTENNA_c502_A3
*1710 ANTENNA_c504_CLK
*1711 ANTENNA_c529_Y
*1712 ANTENNA_c532_CLK_N
*1713 ANTENNA_c532_SET_B
*1714 ANTENNA_c533_CLK
*1715 ANTENNA_c533_Q
*1716 ANTENNA_c533_SCD
*1717 ANTENNA_c534_CLK
*1718 ANTENNA_c534_SCD
*1719 ANTENNA_c535_CLK
*1720 ANTENNA_c535_D
*1721 ANTENNA_c536_CLK_N
*1722 ANTENNA_c536_SCD
*1723 ANTENNA_c537_CLK
*1724 ANTENNA_c538_CLK_N
*1725 ANTENNA_c539_CLK_N
*1726 ANTENNA_c541_A3
*1727 ANTENNA_c542_CLK
*1728 ANTENNA_c542_SCE
*1729 ANTENNA_c543_S0
*1730 ANTENNA_c548_A2
*1731 ANTENNA_c557_Y
*1732 ANTENNA_c560_B1_N
*1733 ANTENNA_c570_A1
*1734 ANTENNA_c572_B
*1735 ANTENNA_c574_B1
*1736 ANTENNA_c574_X
*1737 ANTENNA_c575_B
*1738 ANTENNA_c578_X
*1739 ANTENNA_c579_A2
*1740 ANTENNA_c581_B1
*1741 ANTENNA_c582_CLK
*1742 ANTENNA_c582_SCD
*1743 ANTENNA_c584_B1
*1744 ANTENNA_c585_CLK_N