*SPEF "ieee 1481-1999"
*DESIGN "netlist_1"
*DATE "22:24:58 Saturday July 20, 2024"
*VENDOR "The OpenROAD Project"
*PROGRAM "OpenROAD"
*VERSION "d423155d69de7f683a23f6916ead418a615ad4ad"
*DESIGN_FLOW "NAME_SCOPE LOCAL" "PIN_CAP NONE"
*DIVIDER /
*DELIMITER :
*BUS_DELIMITER []
*T_UNIT 1 NS
*C_UNIT 1 PF
*R_UNIT 1 OHM
*L_UNIT 1 HENRY

*NAME_MAP
*3 clk
*4 in0
*5 in1
*6 in10
*7 in11
*8 in12
*9 in13
*10 in14
*11 in15
*12 in16
*13 in17
*14 in18
*15 in19
*16 in2
*17 in20
*18 in21
*19 in22
*20 in23
*21 in24
*22 in25
*23 in26
*24 in27
*25 in28
*26 in29
*27 in3
*28 in30
*29 in31
*30 in32
*31 in33
*32 in34
*33 in35
*34 in36
*35 in37
*36 in38
*37 in39
*38 in4
*39 in40
*40 in41
*41 in42
*42 in43
*43 in44
*44 in45
*45 in46
*46 in47
*47 in48
*48 in49
*49 in5
*50 in50
*51 in51
*52 in52
*53 in53
*54 in54
*55 in55
*56 in56
*57 in57
*58 in58
*59 in59
*60 in6
*61 in60
*62 in61
*63 in7
*64 in8
*65 in9
*66 out0
*67 out1
*68 out10
*69 out11
*70 out12
*71 out13
*72 out14
*73 out15
*74 out16
*75 out17
*76 out18
*77 out19
*78 out2
*79 out20
*80 out21
*81 out22
*82 out23
*83 out24
*84 out25
*85 out26
*86 out27
*87 out28
*88 out29
*89 out3
*90 out30
*91 out31
*92 out32
*93 out33
*94 out34
*95 out35
*96 out36
*97 out37
*98 out38
*99 out39
*100 out4
*101 out40
*102 out41
*103 out42
*104 out43
*105 out44
*106 out45
*107 out46
*108 out47
*109 out48
*110 out49
*111 out5
*112 out50
*113 out51
*114 out52
*115 out53
*116 out54
*117 out55
*118 out56
*119 out57
*120 out58
*121 out59
*122 out6
*123 out60
*124 out61
*125 out7
*126 out8
*127 out9
*128 rst
*129 clknet_0_clk
*130 clknet_0_net1000
*131 clknet_0_net1003
*132 clknet_0_net107
*133 clknet_0_net139
*134 clknet_0_net155
*135 clknet_0_net159
*136 clknet_0_net164
*137 clknet_0_net168
*138 clknet_0_net204
*139 clknet_0_net243
*140 clknet_0_net245
*141 clknet_0_net249
*142 clknet_0_net275
*143 clknet_0_net283
*144 clknet_0_net284
*145 clknet_0_net303
*146 clknet_0_net304
*147 clknet_0_net309
*148 clknet_0_net310
*149 clknet_0_net313
*150 clknet_0_net318
*151 clknet_0_net329
*152 clknet_0_net333
*153 clknet_0_net337
*154 clknet_0_net339
*155 clknet_0_net340
*156 clknet_0_net345
*157 clknet_0_net347
*158 clknet_0_net349
*159 clknet_0_net350
*160 clknet_0_net352
*161 clknet_0_net366
*162 clknet_0_net375
*163 clknet_0_net384
*164 clknet_0_net395
*165 clknet_0_net397
*166 clknet_0_net406
*167 clknet_0_net428
*168 clknet_0_net455
*169 clknet_0_net458
*170 clknet_0_net470
*171 clknet_0_net471
*172 clknet_0_net473
*173 clknet_0_net481
*174 clknet_0_net482
*175 clknet_0_net488
*176 clknet_0_net498
*177 clknet_0_net519
*178 clknet_0_net529
*179 clknet_0_net532
*180 clknet_0_net545
*181 clknet_0_net547
*182 clknet_0_net560
*183 clknet_0_net564
*184 clknet_0_net580
*185 clknet_0_net583
*186 clknet_0_net591
*187 clknet_0_net593
*188 clknet_0_net598
*189 clknet_0_net613
*190 clknet_0_net614
*191 clknet_0_net623
*192 clknet_0_net628
*193 clknet_0_net762
*194 clknet_0_net767
*195 clknet_0_net799
*196 clknet_0_net827
*197 clknet_0_net828
*198 clknet_0_net829
*199 clknet_0_net847
*200 clknet_0_net848
*201 clknet_0_net849
*202 clknet_0_net867
*203 clknet_0_net868
*204 clknet_0_net887
*205 clknet_0_net888
*206 clknet_0_net889
*207 clknet_0_net94
*208 clknet_0_net963
*209 clknet_0_net965
*210 clknet_0_net968
*211 clknet_0_net971
*212 clknet_0_net981
*213 clknet_0_net982
*214 clknet_0_net984
*215 clknet_0_net988
*216 clknet_1_0__leaf_net1000
*217 clknet_1_0__leaf_net1003
*218 clknet_1_0__leaf_net107
*219 clknet_1_0__leaf_net139
*220 clknet_1_0__leaf_net155
*221 clknet_1_0__leaf_net159
*222 clknet_1_0__leaf_net164
*223 clknet_1_0__leaf_net168
*224 clknet_1_0__leaf_net204
*225 clknet_1_0__leaf_net243
*226 clknet_1_0__leaf_net245
*227 clknet_1_0__leaf_net249
*228 clknet_1_0__leaf_net275
*229 clknet_1_0__leaf_net283
*230 clknet_1_0__leaf_net284
*231 clknet_1_0__leaf_net303
*232 clknet_1_0__leaf_net304
*233 clknet_1_0__leaf_net309
*234 clknet_1_0__leaf_net313
*235 clknet_1_0__leaf_net318
*236 clknet_1_0__leaf_net329
*237 clknet_1_0__leaf_net333
*238 clknet_1_0__leaf_net337
*239 clknet_1_0__leaf_net339
*240 clknet_1_0__leaf_net340
*241 clknet_1_0__leaf_net345
*242 clknet_1_0__leaf_net347
*243 clknet_1_0__leaf_net349
*244 clknet_1_0__leaf_net350
*245 clknet_1_0__leaf_net352
*246 clknet_1_0__leaf_net366
*247 clknet_1_0__leaf_net375
*248 clknet_1_0__leaf_net384
*249 clknet_1_0__leaf_net395
*250 clknet_1_0__leaf_net397
*251 clknet_1_0__leaf_net406
*252 clknet_1_0__leaf_net428
*253 clknet_1_0__leaf_net455
*254 clknet_1_0__leaf_net458
*255 clknet_1_0__leaf_net470
*256 clknet_1_0__leaf_net471
*257 clknet_1_0__leaf_net473
*258 clknet_1_0__leaf_net481
*259 clknet_1_0__leaf_net482
*260 clknet_1_0__leaf_net488
*261 clknet_1_0__leaf_net498
*262 clknet_1_0__leaf_net519
*263 clknet_1_0__leaf_net529
*264 clknet_1_0__leaf_net532
*265 clknet_1_0__leaf_net545
*266 clknet_1_0__leaf_net547
*267 clknet_1_0__leaf_net560
*268 clknet_1_0__leaf_net564
*269 clknet_1_0__leaf_net580
*270 clknet_1_0__leaf_net583
*271 clknet_1_0__leaf_net591
*272 clknet_1_0__leaf_net593
*273 clknet_1_0__leaf_net598
*274 clknet_1_0__leaf_net613
*275 clknet_1_0__leaf_net614
*276 clknet_1_0__leaf_net623
*277 clknet_1_0__leaf_net628
*278 clknet_1_0__leaf_net762
*279 clknet_1_0__leaf_net767
*280 clknet_1_0__leaf_net799
*281 clknet_1_0__leaf_net827
*282 clknet_1_0__leaf_net828
*283 clknet_1_0__leaf_net829
*284 clknet_1_0__leaf_net847
*285 clknet_1_0__leaf_net848
*286 clknet_1_0__leaf_net849
*287 clknet_1_0__leaf_net867
*288 clknet_1_0__leaf_net868
*289 clknet_1_0__leaf_net887
*290 clknet_1_0__leaf_net888
*291 clknet_1_0__leaf_net889
*292 clknet_1_0__leaf_net94
*293 clknet_1_0__leaf_net963
*294 clknet_1_0__leaf_net965
*295 clknet_1_0__leaf_net968
*296 clknet_1_0__leaf_net971
*297 clknet_1_0__leaf_net981
*298 clknet_1_0__leaf_net982
*299 clknet_1_0__leaf_net984
*300 clknet_1_0__leaf_net988
*301 clknet_1_1__leaf_net1000
*302 clknet_1_1__leaf_net1003
*303 clknet_1_1__leaf_net107
*304 clknet_1_1__leaf_net139
*305 clknet_1_1__leaf_net155
*306 clknet_1_1__leaf_net159
*307 clknet_1_1__leaf_net164
*308 clknet_1_1__leaf_net168
*309 clknet_1_1__leaf_net204
*310 clknet_1_1__leaf_net243
*311 clknet_1_1__leaf_net245
*312 clknet_1_1__leaf_net249
*313 clknet_1_1__leaf_net275
*314 clknet_1_1__leaf_net283
*315 clknet_1_1__leaf_net284
*316 clknet_1_1__leaf_net303
*317 clknet_1_1__leaf_net304
*318 clknet_1_1__leaf_net309
*319 clknet_1_1__leaf_net313
*320 clknet_1_1__leaf_net318
*321 clknet_1_1__leaf_net329
*322 clknet_1_1__leaf_net333
*323 clknet_1_1__leaf_net337
*324 clknet_1_1__leaf_net339
*325 clknet_1_1__leaf_net340
*326 clknet_1_1__leaf_net345
*327 clknet_1_1__leaf_net347
*328 clknet_1_1__leaf_net349
*329 clknet_1_1__leaf_net350
*330 clknet_1_1__leaf_net352
*331 clknet_1_1__leaf_net366
*332 clknet_1_1__leaf_net375
*333 clknet_1_1__leaf_net384
*334 clknet_1_1__leaf_net395
*335 clknet_1_1__leaf_net397
*336 clknet_1_1__leaf_net406
*337 clknet_1_1__leaf_net428
*338 clknet_1_1__leaf_net455
*339 clknet_1_1__leaf_net458
*340 clknet_1_1__leaf_net470
*341 clknet_1_1__leaf_net471
*342 clknet_1_1__leaf_net473
*343 clknet_1_1__leaf_net481
*344 clknet_1_1__leaf_net482
*345 clknet_1_1__leaf_net488
*346 clknet_1_1__leaf_net498
*347 clknet_1_1__leaf_net519
*348 clknet_1_1__leaf_net529
*349 clknet_1_1__leaf_net532
*350 clknet_1_1__leaf_net545
*351 clknet_1_1__leaf_net547
*352 clknet_1_1__leaf_net560
*353 clknet_1_1__leaf_net564
*354 clknet_1_1__leaf_net580
*355 clknet_1_1__leaf_net583
*356 clknet_1_1__leaf_net591
*357 clknet_1_1__leaf_net593
*358 clknet_1_1__leaf_net598
*359 clknet_1_1__leaf_net613
*360 clknet_1_1__leaf_net614
*361 clknet_1_1__leaf_net623
*362 clknet_1_1__leaf_net628
*363 clknet_1_1__leaf_net762
*364 clknet_1_1__leaf_net767
*365 clknet_1_1__leaf_net799
*366 clknet_1_1__leaf_net827
*367 clknet_1_1__leaf_net828
*368 clknet_1_1__leaf_net829
*369 clknet_1_1__leaf_net847
*370 clknet_1_1__leaf_net848
*371 clknet_1_1__leaf_net849
*372 clknet_1_1__leaf_net867
*373 clknet_1_1__leaf_net868
*374 clknet_1_1__leaf_net887
*375 clknet_1_1__leaf_net888
*376 clknet_1_1__leaf_net889
*377 clknet_1_1__leaf_net94
*378 clknet_1_1__leaf_net963
*379 clknet_1_1__leaf_net965
*380 clknet_1_1__leaf_net968
*381 clknet_1_1__leaf_net971
*382 clknet_1_1__leaf_net981
*383 clknet_1_1__leaf_net982
*384 clknet_1_1__leaf_net984
*385 clknet_1_1__leaf_net988
*386 clknet_2_0__leaf_net310
*387 clknet_2_1__leaf_net310
*388 clknet_2_2__leaf_net310
*389 clknet_2_3__leaf_net310
*390 clknet_4_0_0_clk
*391 clknet_4_10_0_clk
*392 clknet_4_11_0_clk
*393 clknet_4_12_0_clk
*394 clknet_4_13_0_clk
*395 clknet_4_14_0_clk
*396 clknet_4_15_0_clk
*397 clknet_4_1_0_clk
*398 clknet_4_2_0_clk
*399 clknet_4_3_0_clk
*400 clknet_4_4_0_clk
*401 clknet_4_5_0_clk
*402 clknet_4_6_0_clk
*403 clknet_4_7_0_clk
*404 clknet_4_8_0_clk
*405 clknet_4_9_0_clk
*406 net0
*407 net1
*408 net10
*409 net100
*410 net1000
*411 net1001
*412 net1002
*413 net1003
*414 net1004
*415 net1005
*416 net1006
*417 net1007
*418 net1008
*419 net1009
*420 net101
*421 net1010
*422 net1011
*423 net1012
*424 net1013
*425 net1014
*426 net1015
*427 net1016
*428 net1017
*429 net1018
*430 net1019
*431 net102
*432 net1020
*433 net1021
*434 net1022
*435 net1023
*436 net1024
*437 net1025
*438 net1026
*439 net1027
*440 net1028
*441 net1029
*442 net103
*443 net1030
*444 net1031
*445 net1032
*446 net1033
*447 net1034
*448 net1035
*449 net1036
*450 net1037
*451 net1038
*452 net1039
*453 net104
*454 net1040
*455 net1041
*456 net1042
*457 net1043
*458 net1044
*459 net1045
*460 net1046
*461 net1047
*462 net1048
*463 net1049
*464 net105
*465 net1050
*466 net1051
*467 net1052
*468 net1053
*469 net1054
*470 net1055
*471 net1056
*472 net1057
*473 net1058
*474 net1059
*475 net106
*476 net1060
*477 net1061
*478 net1062
*479 net1063
*480 net1064
*481 net1065
*482 net1066
*483 net1067
*484 net1068
*485 net1069
*486 net107
*487 net1070
*488 net1071
*489 net1072
*490 net1073
*491 net1074
*492 net1075
*493 net1076
*494 net1077
*495 net1078
*496 net1079
*497 net108
*498 net1080
*499 net1081
*500 net1082
*501 net1083
*502 net1084
*503 net1085
*504 net1086
*505 net1087
*506 net1088
*507 net1089
*508 net109
*509 net1090
*510 net1091
*511 net1092
*512 net1093
*513 net1094
*514 net1095
*515 net1096
*516 net1097
*517 net1098
*518 net1099
*519 net11
*520 net110
*521 net1100
*522 net1101
*523 net1102
*524 net111
*525 net112
*526 net113
*527 net114
*528 net115
*529 net116
*530 net117
*531 net118
*532 net119
*533 net12
*534 net120
*535 net121
*536 net122
*537 net123
*538 net124
*539 net125
*540 net126
*541 net127
*542 net128
*543 net129
*544 net13
*545 net130
*546 net131
*547 net132
*548 net133
*549 net134
*550 net135
*551 net136
*552 net137
*553 net138
*554 net139
*555 net14
*556 net140
*557 net141
*558 net142
*559 net143
*560 net144
*561 net145
*562 net146
*563 net147
*564 net148
*565 net149
*566 net15
*567 net150
*568 net151
*569 net152
*570 net153
*571 net154
*572 net155
*573 net156
*574 net157
*575 net158
*576 net159
*577 net16
*578 net160
*579 net161
*580 net162
*581 net163
*582 net164
*583 net165
*584 net166
*585 net167
*586 net168
*587 net169
*588 net17
*589 net170
*590 net171
*591 net172
*592 net173
*593 net174
*594 net175
*595 net176
*596 net177
*597 net178
*598 net179
*599 net18
*600 net180
*601 net181
*602 net182
*603 net183
*604 net184
*605 net185
*606 net186
*607 net187
*608 net188
*609 net189
*610 net19
*611 net190
*612 net191
*613 net192
*614 net193
*615 net194
*616 net195
*617 net196
*618 net197
*619 net198
*620 net199
*621 net2
*622 net20
*623 net200
*624 net201
*625 net202
*626 net203
*627 net204
*628 net205
*629 net206
*630 net207
*631 net208
*632 net209
*633 net21
*634 net210
*635 net211
*636 net212
*637 net213
*638 net214
*639 net215
*640 net216
*641 net217
*642 net218
*643 net219
*644 net22
*645 net220
*646 net221
*647 net222
*648 net223
*649 net224
*650 net225
*651 net226
*652 net227
*653 net228
*654 net229
*655 net23
*656 net230
*657 net231
*658 net232
*659 net233
*660 net234
*661 net235
*662 net236
*663 net237
*664 net238
*665 net239
*666 net24
*667 net240
*668 net241
*669 net242
*670 net243
*671 net244
*672 net245
*673 net246
*674 net247
*675 net248
*676 net249
*677 net25
*678 net250
*679 net251
*680 net252
*681 net253
*682 net254
*683 net255
*684 net256
*685 net257
*686 net258
*687 net259
*688 net26
*689 net260
*690 net261
*691 net262
*692 net263
*693 net264
*694 net265
*695 net266
*696 net267
*697 net268
*698 net269
*699 net27
*700 net270
*701 net271
*702 net272
*703 net273
*704 net274
*705 net275
*706 net276
*707 net277
*708 net278
*709 net279
*710 net28
*711 net280
*712 net281
*713 net282
*714 net283
*715 net284
*716 net285
*717 net286
*718 net287
*719 net288
*720 net289
*721 net29
*722 net290
*723 net291
*724 net292
*725 net293
*726 net294
*727 net295
*728 net296
*729 net297
*730 net298
*731 net299
*732 net3
*733 net30
*734 net300
*735 net301
*736 net302
*737 net303
*738 net304
*739 net305
*740 net306
*741 net307
*742 net308
*743 net309
*744 net31
*745 net310
*746 net311
*747 net312
*748 net313
*749 net314
*750 net315
*751 net316
*752 net317
*753 net318
*754 net319
*755 net32
*756 net320
*757 net321
*758 net322
*759 net323
*760 net324
*761 net325
*762 net326
*763 net327
*764 net328
*765 net329
*766 net33
*767 net330
*768 net331
*769 net332
*770 net333
*771 net334
*772 net335
*773 net336
*774 net337
*775 net338
*776 net339
*777 net34
*778 net340
*779 net341
*780 net342
*781 net343
*782 net344
*783 net345
*784 net346
*785 net347
*786 net348
*787 net349
*788 net35
*789 net350
*790 net351
*791 net352
*792 net353
*793 net354
*794 net355
*795 net356
*796 net357
*797 net358
*798 net359
*799 net36
*800 net360
*801 net361
*802 net362
*803 net363
*804 net364
*805 net365
*806 net366
*807 net367
*808 net368
*809 net369
*810 net37
*811 net370
*812 net371
*813 net372
*814 net373
*815 net374
*816 net375
*817 net376
*818 net377
*819 net378
*820 net379
*821 net38
*822 net380
*823 net381
*824 net382
*825 net383
*826 net384
*827 net385
*828 net386
*829 net387
*830 net388
*831 net389
*832 net39
*833 net390
*834 net391
*835 net392
*836 net393
*837 net394
*838 net395
*839 net396
*840 net397
*841 net398
*842 net399
*843 net4
*844 net40
*845 net400
*846 net401
*847 net402
*848 net403
*849 net404
*850 net405
*851 net406
*852 net407
*853 net408
*854 net409
*855 net41
*856 net410
*857 net411
*858 net412
*859 net413
*860 net414
*861 net415
*862 net416
*863 net417
*864 net418
*865 net419
*866 net42
*867 net420
*868 net421
*869 net422
*870 net423
*871 net424
*872 net425
*873 net426
*874 net427
*875 net428
*876 net429
*877 net43
*878 net430
*879 net431
*880 net432
*881 net433
*882 net434
*883 net435
*884 net436
*885 net437
*886 net438
*887 net439
*888 net44
*889 net440
*890 net441
*891 net442
*892 net443
*893 net444
*894 net445
*895 net446
*896 net447
*897 net448
*898 net449
*899 net45
*900 net450
*901 net451
*902 net452
*903 net453
*904 net454
*905 net455
*906 net456
*907 net457
*908 net458
*909 net459
*910 net46
*911 net460
*912 net461
*913 net462
*914 net463
*915 net464
*916 net465
*917 net466
*918 net467
*919 net468
*920 net469
*921 net47
*922 net470
*923 net471
*924 net472
*925 net473
*926 net474
*927 net475
*928 net476
*929 net477
*930 net478
*931 net479
*932 net48
*933 net480
*934 net481
*935 net482
*936 net483
*937 net484
*938 net485
*939 net486
*940 net487
*941 net488
*942 net489
*943 net49
*944 net490
*945 net491
*946 net492
*947 net493
*948 net494
*949 net495
*950 net496
*951 net497
*952 net498
*953 net499
*954 net5
*955 net50
*956 net500
*957 net501
*958 net502
*959 net503
*960 net504
*961 net505
*962 net506
*963 net507
*964 net508
*965 net509
*966 net51
*967 net510
*968 net511
*969 net512
*970 net513
*971 net514
*972 net515
*973 net516
*974 net517
*975 net518
*976 net519
*977 net52
*978 net520
*979 net521
*980 net522
*981 net523
*982 net524
*983 net525
*984 net526
*985 net527
*986 net528
*987 net529
*988 net53
*989 net530
*990 net531
*991 net532
*992 net533
*993 net534
*994 net535
*995 net536
*996 net537
*997 net538
*998 net539
*999 net54
*1000 net540
*1001 net541
*1002 net542
*1003 net543
*1004 net544
*1005 net545
*1006 net546
*1007 net547
*1008 net548
*1009 net549
*1010 net55
*1011 net550
*1012 net551
*1013 net552
*1014 net553
*1015 net554
*1016 net555
*1017 net556
*1018 net557
*1019 net558
*1020 net559
*1021 net56
*1022 net560
*1023 net561
*1024 net562
*1025 net563
*1026 net564
*1027 net565
*1028 net566
*1029 net567
*1030 net568
*1031 net569
*1032 net57
*1033 net570
*1034 net571
*1035 net572
*1036 net573
*1037 net574
*1038 net575
*1039 net576
*1040 net577
*1041 net578
*1042 net579
*1043 net58
*1044 net580
*1045 net581
*1046 net582
*1047 net583
*1048 net584
*1049 net585
*1050 net586
*1051 net587
*1052 net588
*1053 net589
*1054 net59
*1055 net590
*1056 net591
*1057 net592
*1058 net593
*1059 net594
*1060 net595
*1061 net596
*1062 net597
*1063 net598
*1064 net599
*1065 net6
*1066 net60
*1067 net600
*1068 net601
*1069 net602
*1070 net603
*1071 net604
*1072 net605
*1073 net606
*1074 net607
*1075 net608
*1076 net609
*1077 net61
*1078 net610
*1079 net611
*1080 net612
*1081 net613
*1082 net614
*1083 net615
*1084 net616
*1085 net617
*1086 net618
*1087 net619
*1088 net62
*1089 net620
*1090 net621
*1091 net622
*1092 net623
*1093 net624
*1094 net625
*1095 net626
*1096 net627
*1097 net628
*1098 net629
*1099 net63
*1100 net630
*1101 net631
*1102 net632
*1103 net633
*1104 net634
*1105 net635
*1106 net636
*1107 net637
*1108 net638
*1109 net639
*1110 net64
*1111 net640
*1112 net641
*1113 net642
*1114 net643
*1115 net644
*1116 net645
*1117 net646
*1118 net647
*1119 net648
*1120 net649
*1121 net65
*1122 net650
*1123 net651
*1124 net652
*1125 net653
*1126 net654
*1127 net655
*1128 net656
*1129 net657
*1130 net658
*1131 net659
*1132 net66
*1133 net660
*1134 net661
*1135 net662
*1136 net663
*1137 net664
*1138 net665
*1139 net666
*1140 net667
*1141 net668
*1142 net669
*1143 net67
*1144 net670
*1145 net671
*1146 net672
*1147 net673
*1148 net674
*1149 net675
*1150 net676
*1151 net677
*1152 net678
*1153 net679
*1154 net68
*1155 net680
*1156 net681
*1157 net682
*1158 net683
*1159 net684
*1160 net685
*1161 net686
*1162 net687
*1163 net688
*1164 net689
*1165 net69
*1166 net690
*1167 net691
*1168 net692
*1169 net693
*1170 net694
*1171 net695
*1172 net696
*1173 net697
*1174 net698
*1175 net699
*1176 net7
*1177 net70
*1178 net700
*1179 net701
*1180 net702
*1181 net703
*1182 net704
*1183 net705
*1184 net706
*1185 net707
*1186 net708
*1187 net709
*1188 net71
*1189 net710
*1190 net711
*1191 net712
*1192 net713
*1193 net714
*1194 net715
*1195 net716
*1196 net717
*1197 net718
*1198 net719
*1199 net72
*1200 net720
*1201 net721
*1202 net722
*1203 net723
*1204 net724
*1205 net725
*1206 net726
*1207 net727
*1208 net728
*1209 net729
*1210 net73
*1211 net730
*1212 net731
*1213 net732
*1214 net733
*1215 net734
*1216 net735
*1217 net736
*1218 net737
*1219 net738
*1220 net739
*1221 net74
*1222 net740
*1223 net741
*1224 net742
*1225 net743
*1226 net744
*1227 net745
*1228 net746
*1229 net747
*1230 net748
*1231 net749
*1232 net75
*1233 net750
*1234 net751
*1235 net752
*1236 net753
*1237 net754
*1238 net755
*1239 net756
*1240 net757
*1241 net758
*1242 net759
*1243 net76
*1244 net760
*1245 net761
*1246 net762
*1247 net763
*1248 net764
*1249 net765
*1250 net766
*1251 net767
*1252 net768
*1253 net769
*1254 net77
*1255 net770
*1256 net771
*1257 net772
*1258 net773
*1259 net774
*1260 net775
*1261 net776
*1262 net777
*1263 net778
*1264 net779
*1265 net78
*1266 net780
*1267 net781
*1268 net782
*1269 net783
*1270 net784
*1271 net785
*1272 net786
*1273 net787
*1274 net788
*1275 net789
*1276 net79
*1277 net790
*1278 net791
*1279 net792
*1280 net793
*1281 net794
*1282 net795
*1283 net796
*1284 net797
*1285 net798
*1286 net799
*1287 net8
*1288 net80
*1289 net800
*1290 net801
*1291 net802
*1292 net803
*1293 net804
*1294 net805
*1295 net806
*1296 net807
*1297 net808
*1298 net809
*1299 net81
*1300 net810
*1301 net811
*1302 net812
*1303 net813
*1304 net814
*1305 net815
*1306 net816
*1307 net817
*1308 net818
*1309 net819
*1310 net82
*1311 net820
*1312 net821
*1313 net822
*1314 net823
*1315 net824
*1316 net825
*1317 net826
*1318 net827
*1319 net828
*1320 net829
*1321 net83
*1322 net830
*1323 net831
*1324 net832
*1325 net833
*1326 net834
*1327 net835
*1328 net836
*1329 net837
*1330 net838
*1331 net839
*1332 net84
*1333 net840
*1334 net841
*1335 net842
*1336 net843
*1337 net844
*1338 net845
*1339 net846
*1340 net847
*1341 net848
*1342 net849
*1343 net85
*1344 net850
*1345 net851
*1346 net852
*1347 net853
*1348 net854
*1349 net855
*1350 net856
*1351 net857
*1352 net858
*1353 net859
*1354 net86
*1355 net860
*1356 net861
*1357 net862
*1358 net863
*1359 net864
*1360 net865
*1361 net866
*1362 net867
*1363 net868
*1364 net869
*1365 net87
*1366 net870
*1367 net871
*1368 net872
*1369 net873
*1370 net874
*1371 net875
*1372 net876
*1373 net877
*1374 net878
*1375 net879
*1376 net88
*1377 net880
*1378 net881
*1379 net882
*1380 net883
*1381 net884
*1382 net885
*1383 net886
*1384 net887
*1385 net888
*1386 net889
*1387 net89
*1388 net890
*1389 net891
*1390 net892
*1391 net893
*1392 net894
*1393 net895
*1394 net896
*1395 net897
*1396 net898
*1397 net899
*1398 net9
*1399 net90
*1400 net900
*1401 net901
*1402 net902
*1403 net903
*1404 net904
*1405 net905
*1406 net906
*1407 net907
*1408 net908
*1409 net909
*1410 net91
*1411 net910
*1412 net911
*1413 net912
*1414 net913
*1415 net914
*1416 net915
*1417 net916
*1418 net917
*1419 net918
*1420 net919
*1421 net92
*1422 net920
*1423 net921
*1424 net922
*1425 net923
*1426 net924
*1427 net925
*1428 net926
*1429 net927
*1430 net928
*1431 net929
*1432 net93
*1433 net930
*1434 net931
*1435 net932
*1436 net933
*1437 net934
*1438 net935
*1439 net936
*1440 net937
*1441 net938
*1442 net939
*1443 net94
*1444 net940
*1445 net941
*1446 net942
*1447 net943
*1448 net944
*1449 net945
*1450 net946
*1451 net947
*1452 net948
*1453 net949
*1454 net95
*1455 net950
*1456 net951
*1457 net952
*1458 net953
*1459 net954
*1460 net955
*1461 net956
*1462 net957
*1463 net958
*1464 net959
*1465 net96
*1466 net960
*1467 net961
*1468 net962
*1469 net963
*1470 net964
*1471 net965
*1472 net966
*1473 net967
*1474 net968
*1475 net969
*1476 net97
*1477 net970
*1478 net971
*1479 net972
*1480 net973
*1481 net974
*1482 net975
*1483 net976
*1484 net977
*1485 net978
*1486 net979
*1487 net98
*1488 net980
*1489 net981
*1490 net982
*1491 net983
*1492 net984
*1493 net985
*1494 net986
*1495 net987
*1496 net988
*1497 net989
*1498 net99
*1499 net990
*1500 net991
*1501 net992
*1502 net993
*1503 net994
*1504 net995
*1505 net996
*1506 net997
*1507 net998
*1508 net999
*1509 ANTENNA_1
*1510 ANTENNA_2
*1511 ANTENNA_3
*1512 ANTENNA_4
*1513 ANTENNA_c102_C
*1514 ANTENNA_c104_CLK_N
*1515 ANTENNA_c104_Q
*1516 ANTENNA_c104_Q_N
*1517 ANTENNA_c104_RESET_B
*1518 ANTENNA_c105_A2
*1519 ANTENNA_c106_B
*1520 ANTENNA_c106_C_N
*1521 ANTENNA_c106_D_N
*1522 ANTENNA_c107_A0
*1523 ANTENNA_c107_A1
*1524 ANTENNA_c107_S1
*1525 ANTENNA_c108_CLK
*1526 ANTENNA_c108_Q
*1527 ANTENNA_c108_Q_N
*1528 ANTENNA_c108_SCD
*1529 ANTENNA_c108_SCE
*1530 ANTENNA_c109_A3
*1531 ANTENNA_c109_S1
*1532 ANTENNA_c112_A
*1533 ANTENNA_c112_B
*1534 ANTENNA_c113_B
*1535 ANTENNA_c114_C_N
*1536 ANTENNA_c115_A
*1537 ANTENNA_c116_A
*1538 ANTENNA_c118_B_N
*1539 ANTENNA_c119_A
*1540 ANTENNA_c119_X
*1541 ANTENNA_c120_D1
*1542 ANTENNA_c121_B
*1543 ANTENNA_c122_B
*1544 ANTENNA_c123_C_N
*1545 ANTENNA_c124_B
*1546 ANTENNA_c124_C_N
*1547 ANTENNA_c125_B
*1548 ANTENNA_c128_CLK_N
*1549 ANTENNA_c131_CLK
*1550 ANTENNA_c131_SCD
*1551 ANTENNA_c131_SCE
*1552 ANTENNA_c132_C
*1553 ANTENNA_c132_X
*1554 ANTENNA_c134_B
*1555 ANTENNA_c135_X
*1556 ANTENNA_c136_B
*1557 ANTENNA_c137_B
*1558 ANTENNA_c138_C
*1559 ANTENNA_c139_X
*1560 ANTENNA_c140_A1
*1561 ANTENNA_c140_S1
*1562 ANTENNA_c140_X
*1563 ANTENNA_c141_B
*1564 ANTENNA_c141_X
*1565 ANTENNA_c142_C_N
*1566 ANTENNA_c143_A
*1567 ANTENNA_c143_Y
*1568 ANTENNA_c144_Y
*1569 ANTENNA_c146_A0
*1570 ANTENNA_c146_A2
*1571 ANTENNA_c146_A3
*1572 ANTENNA_c147_C
*1573 ANTENNA_c147_X
*1574 ANTENNA_c148_B1
*1575 ANTENNA_c148_C1
*1576 ANTENNA_c148_D1
*1577 ANTENNA_c149_D1
*1578 ANTENNA_c150_A2
*1579 ANTENNA_c150_A3
*1580 ANTENNA_c150_S1
*1581 ANTENNA_c151_A2
*1582 ANTENNA_c151_A3
*1583 ANTENNA_c151_S0
*1584 ANTENNA_c151_S1
*1585 ANTENNA_c152_A0
*1586 ANTENNA_c152_A2
*1587 ANTENNA_c152_S0
*1588 ANTENNA_c153_A0
*1589 ANTENNA_c153_A2
*1590 ANTENNA_c154_B
*1591 ANTENNA_c154_Y
*1592 ANTENNA_c155_A_N
*1593 ANTENNA_c155_B
*1594 ANTENNA_c155_Y
*1595 ANTENNA_c156_B
*1596 ANTENNA_c156_Y
*1597 ANTENNA_c157_B
*1598 ANTENNA_c158_B
*1599 ANTENNA_c159_B
*1600 ANTENNA_c159_C_N
*1601 ANTENNA_c160_A_N
*1602 ANTENNA_c160_B
*1603 ANTENNA_c161_B
*1604 ANTENNA_c162_CLK
*1605 ANTENNA_c162_SCE
*1606 ANTENNA_c163_A
*1607 ANTENNA_c165_A
*1608 ANTENNA_c166_C_N
*1609 ANTENNA_c167_B
*1610 ANTENNA_c167_C
*1611 ANTENNA_c168_B
*1612 ANTENNA_c169_C
*1613 ANTENNA_c170_A1
*1614 ANTENNA_c170_A3
*1615 ANTENNA_c170_S0
*1616 ANTENNA_c171_A
*1617 ANTENNA_c171_C
*1618 ANTENNA_c171_Y
*1619 ANTENNA_c172_Y
*1620 ANTENNA_c173_B
*1621 ANTENNA_c173_C_N
*1622 ANTENNA_c174_A
*1623 ANTENNA_c175_Y
*1624 ANTENNA_c177_X
*1625 ANTENNA_c178_A
*1626 ANTENNA_c179_A
*1627 ANTENNA_c179_B
*1628 ANTENNA_c179_C
*1629 ANTENNA_c179_Y
*1630 ANTENNA_c180_A2
*1631 ANTENNA_c180_B1
*1632 ANTENNA_c180_C1
*1633 ANTENNA_c180_D1
*1634 ANTENNA_c181_Y
*1635 ANTENNA_c182_B
*1636 ANTENNA_c184_Y
*1637 ANTENNA_c188_A
*1638 ANTENNA_c189_A2
*1639 ANTENNA_c189_B1
*1640 ANTENNA_c189_D1
*1641 ANTENNA_c189_X
*1642 ANTENNA_c190_A_N
*1643 ANTENNA_c190_C
*1644 ANTENNA_c190_X
*1645 ANTENNA_c191_CLK_N
*1646 ANTENNA_c191_Q
*1647 ANTENNA_c191_Q_N
*1648 ANTENNA_c191_SCD
*1649 ANTENNA_c191_SCE
*1650 ANTENNA_c192_X
*1651 ANTENNA_c193_B
*1652 ANTENNA_c193_C_N
*1653 ANTENNA_c194_A2
*1654 ANTENNA_c194_C1
*1655 ANTENNA_c194_D1
*1656 ANTENNA_c195_A3
*1657 ANTENNA_c195_S1
*1658 ANTENNA_c197_A2
*1659 ANTENNA_c198_A
*1660 ANTENNA_c199_A
*1661 ANTENNA_c200_A
*1662 ANTENNA_c200_B
*1663 ANTENNA_c201_A
*1664 ANTENNA_c201_X
*1665 ANTENNA_c202_B
*1666 ANTENNA_c204_A
*1667 ANTENNA_c204_B
*1668 ANTENNA_c205_X
*1669 ANTENNA_c206_B
*1670 ANTENNA_c212_X
*1671 ANTENNA_c213_CLK
*1672 ANTENNA_c213_SCE
*1673 ANTENNA_c213_SET_B
*1674 ANTENNA_c217_A1
*1675 ANTENNA_c217_B1
*1676 ANTENNA_c217_C1
*1677 ANTENNA_c217_Y
*1678 ANTENNA_c219_A2
*1679 ANTENNA_c219_C1
*1680 ANTENNA_c219_D1
*1681 ANTENNA_c222_C
*1682 ANTENNA_c225_A
*1683 ANTENNA_c225_B
*1684 ANTENNA_c225_C
*1685 ANTENNA_c226_CLK_N
*1686 ANTENNA_c226_D
*1687 ANTENNA_c226_Q
*1688 ANTENNA_c226_SCE
*1689 ANTENNA_c227_B
*1690 ANTENNA_c228_S1
*1691 ANTENNA_c229_B
*1692 ANTENNA_c230_A1
*1693 ANTENNA_c230_A2
*1694 ANTENNA_c231_CLK_N
*1695 ANTENNA_c231_SCD
*1696 ANTENNA_c231_SET_B
*1697 ANTENNA_c232_A
*1698 ANTENNA_c232_B
*1699 ANTENNA_c232_D_N
*1700 ANTENNA_c235_CLK
*1701 ANTENNA_c235_Q
*1702 ANTENNA_c235_SCD
*1703 ANTENNA_c236_A1
*1704 ANTENNA_c236_A3
*1705 ANTENNA_c236_S1
*1706 ANTENNA_c237_A1
*1707 ANTENNA_c238_A2
*1708 ANTENNA_c240_B1
*1709 ANTENNA_c241_A0
*1710 ANTENNA_c241_S0
*1711 ANTENNA_c243_A
*1712 ANTENNA_c243_B
*1713 ANTENNA_c243_Y
*1714 ANTENNA_c245_A_N
*1715 ANTENNA_c245_B
*1716 ANTENNA_c249_A2
*1717 ANTENNA_c249_D1
*1718 ANTENNA_c250_B
*1719 ANTENNA_c250_C
*1720 ANTENNA_c251_B_N
*1721 ANTENNA_c254_A
*1722 ANTENNA_c257_B
*1723 ANTENNA_c262_A2
*1724 ANTENNA_c262_S1
*1725 ANTENNA_c263_A2
*1726 ANTENNA_c266_A
*1727 ANTENNA_c266_B_N
*1728 ANTENNA_c266_Y
*1729 ANTENNA_c267_B
*1730 ANTENNA_c269_X
*1731 ANTENNA_c270_A
*1732 ANTENNA_c270_B_N
*1733 ANTENNA_c270_X
*1734 ANTENNA_c271_Y
*1735 ANTENNA_c273_A
*1736 ANTENNA_c273_C_N
*1737 ANTENNA_c274_B
*1738 ANTENNA_c275_B
*1739 ANTENNA_c275_Y
*1740 ANTENNA_c276_B
*1741 ANTENNA_c278_A2
*1742 ANTENNA_c278_S0
*1743 ANTENNA_c278_X
*1744 ANTENNA_c279_CLK
*1745 ANTENNA_c279_Q_N
*1746 ANTENNA_c279_SCD
*1747 ANTENNA_c279_SCE
*1748 ANTENNA_c281_A1
*1749 ANTENNA_c281_S0
*1750 ANTENNA_c283_S0
*1751 ANTENNA_c284_B
*1752 ANTENNA_c284_C_N
*1753 ANTENNA_c285_A3
*1754 ANTENNA_c285_S1
*1755 ANTENNA_c285_X
*1756 ANTENNA_c286_Y
*1757 ANTENNA_c287_B
*1758 ANTENNA_c289_Y
*1759 ANTENNA_c292_CLK_N
*1760 ANTENNA_c292_Q
*1761 ANTENNA_c292_Q_N
*1762 ANTENNA_c292_SCE
*1763 ANTENNA_c294_A2
*1764 ANTENNA_c294_B1
*1765 ANTENNA_c294_C1
*1766 ANTENNA_c294_D1
*1767 ANTENNA_c295_CLK
*1768 ANTENNA_c295_D
*1769 ANTENNA_c295_Q
*1770 ANTENNA_c295_Q_N
*1771 ANTENNA_c295_SCD
*1772 ANTENNA_c295_SCE
*1773 ANTENNA_c297_X
*1774 ANTENNA_c299_A1
*1775 ANTENNA_c299_A2
*1776 ANTENNA_c299_A3
*1777 ANTENNA_c299_S0
*1778 ANTENNA_c300_A
*1779 ANTENNA_c300_B
*1780 ANTENNA_c301_CLK
*1781 ANTENNA_c301_SCD
*1782 ANTENNA_c301_SET_B
*1783 ANTENNA_c303_Q
*1784 ANTENNA_c303_Q_N
*1785 ANTENNA_c303_SCE
*1786 ANTENNA_c304_C_N
*1787 ANTENNA_c305_X
*1788 ANTENNA_c306_A0
*1789 ANTENNA_c306_A2
*1790 ANTENNA_c306_S0
*1791 ANTENNA_c306_S1
*1792 ANTENNA_c306_X
*1793 ANTENNA_c307_A0
*1794 ANTENNA_c307_A1
*1795 ANTENNA_c307_S1
*1796 ANTENNA_c308_B
*1797 ANTENNA_c308_X
*1798 ANTENNA_c310_A
*1799 ANTENNA_c310_B
*1800 ANTENNA_c310_C_N
*1801 ANTENNA_c310_D_N
*1802 ANTENNA_c311_B
*1803 ANTENNA_c311_Y
*1804 ANTENNA_c312_B_N
*1805 ANTENNA_c313_B
*1806 ANTENNA_c313_C_N
*1807 ANTENNA_c313_D_N
*1808 ANTENNA_c314_A1
*1809 ANTENNA_c314_A2
*1810 ANTENNA_c314_B1
*1811 ANTENNA_c314_C1
*1812 ANTENNA_c315_A
*1813 ANTENNA_c315_B
*1814 ANTENNA_c316_B
*1815 ANTENNA_c316_D_N
*1816 ANTENNA_c318_X
*1817 ANTENNA_c320_A1
*1818 ANTENNA_c320_C1
*1819 ANTENNA_c321_A0
*1820 ANTENNA_c321_A1
*1821 ANTENNA_c321_S1
*1822 ANTENNA_c321_X
*1823 ANTENNA_c323_B
*1824 ANTENNA_c325_C
*1825 ANTENNA_c326_S0
*1826 ANTENNA_c327_A3
*1827 ANTENNA_c327_S0
*1828 ANTENNA_c329_B1
*1829 ANTENNA_c329_C1
*1830 ANTENNA_c330_A
*1831 ANTENNA_c330_B
*1832 ANTENNA_c330_D_N
*1833 ANTENNA_c331_A
*1834 ANTENNA_c332_A
*1835 ANTENNA_c332_B
*1836 ANTENNA_c332_C
*1837 ANTENNA_c333_A1
*1838 ANTENNA_c333_A3
*1839 ANTENNA_c333_S0
*1840 ANTENNA_c333_S1
*1841 ANTENNA_c334_CLK
*1842 ANTENNA_c334_D
*1843 ANTENNA_c334_RESET_B
*1844 ANTENNA_c334_SCD
*1845 ANTENNA_c334_SCE
*1846 ANTENNA_c334_SET_B
*1847 ANTENNA_c335_X
*1848 ANTENNA_c336_B
*1849 ANTENNA_c336_C_N
*1850 ANTENNA_c336_D_N
*1851 ANTENNA_c336_X