*SPEF "ieee 1481-1999"
*DESIGN "netlist_2"
*DATE "19:05:45 Tuesday July 23, 2024"
*VENDOR "The OpenROAD Project"
*PROGRAM "OpenROAD"
*VERSION "d423155d69de7f683a23f6916ead418a615ad4ad"
*DESIGN_FLOW "NAME_SCOPE LOCAL" "PIN_CAP NONE"
*DIVIDER /
*DELIMITER :
*BUS_DELIMITER []
*T_UNIT 1 NS
*C_UNIT 1 PF
*R_UNIT 1 OHM
*L_UNIT 1 HENRY

*NAME_MAP
*3 clk
*4 in0
*5 in1
*6 in10
*7 in11
*8 in12
*9 in13
*10 in14
*11 in15
*12 in16
*13 in17
*14 in18
*15 in19
*16 in2
*17 in20
*18 in21
*19 in22
*20 in23
*21 in24
*22 in25
*23 in26
*24 in27
*25 in28
*26 in29
*27 in3
*28 in30
*29 in31
*30 in32
*31 in33
*32 in34
*33 in35
*34 in36
*35 in37
*36 in38
*37 in39
*38 in4
*39 in40
*40 in41
*41 in42
*42 in43
*43 in44
*44 in45
*45 in46
*46 in47
*47 in48
*48 in49
*49 in5
*50 in50
*51 in51
*52 in6
*53 in7
*54 in8
*55 in9
*56 out0
*57 out1
*58 out10
*59 out11
*60 out12
*61 out13
*62 out14
*63 out15
*64 out16
*65 out17
*66 out18
*67 out19
*68 out2
*69 out20
*70 out21
*71 out22
*72 out23
*73 out24
*74 out25
*75 out26
*76 out27
*77 out28
*78 out29
*79 out3
*80 out30
*81 out31
*82 out32
*83 out33
*84 out34
*85 out35
*86 out36
*87 out37
*88 out38
*89 out39
*90 out4
*91 out40
*92 out41
*93 out42
*94 out43
*95 out44
*96 out45
*97 out46
*98 out47
*99 out48
*100 out49
*101 out5
*102 out50
*103 out51
*104 out6
*105 out7
*106 out8
*107 out9
*108 rst
*109 clknet_0_clk
*110 clknet_0_net1068
*111 clknet_0_net1069
*112 clknet_0_net147
*113 clknet_0_net153
*114 clknet_0_net156
*115 clknet_0_net164
*116 clknet_0_net165
*117 clknet_0_net172
*118 clknet_0_net174
*119 clknet_0_net175
*120 clknet_0_net176
*121 clknet_0_net178
*122 clknet_0_net180
*123 clknet_0_net182
*124 clknet_0_net186
*125 clknet_0_net187
*126 clknet_0_net193
*127 clknet_0_net198
*128 clknet_0_net199
*129 clknet_0_net202
*130 clknet_0_net204
*131 clknet_0_net206
*132 clknet_0_net207
*133 clknet_0_net248
*134 clknet_0_net249
*135 clknet_0_net250
*136 clknet_0_net251
*137 clknet_0_net252
*138 clknet_0_net254
*139 clknet_0_net263
*140 clknet_0_net265
*141 clknet_0_net266
*142 clknet_0_net269
*143 clknet_0_net271
*144 clknet_0_net275
*145 clknet_0_net281
*146 clknet_0_net287
*147 clknet_0_net290
*148 clknet_0_net295
*149 clknet_0_net297
*150 clknet_0_net299
*151 clknet_0_net304
*152 clknet_0_net305
*153 clknet_0_net308
*154 clknet_0_net312
*155 clknet_0_net313
*156 clknet_0_net314
*157 clknet_0_net357
*158 clknet_0_net362
*159 clknet_0_net364
*160 clknet_0_net372
*161 clknet_0_net376
*162 clknet_0_net377
*163 clknet_0_net389
*164 clknet_0_net390
*165 clknet_0_net398
*166 clknet_0_net401
*167 clknet_0_net414
*168 clknet_0_net420
*169 clknet_0_net428
*170 clknet_0_net434
*171 clknet_0_net436
*172 clknet_0_net445
*173 clknet_0_net446
*174 clknet_0_net447
*175 clknet_0_net448
*176 clknet_0_net450
*177 clknet_0_net455
*178 clknet_0_net459
*179 clknet_0_net461
*180 clknet_0_net462
*181 clknet_0_net463
*182 clknet_0_net472
*183 clknet_0_net474
*184 clknet_0_net487
*185 clknet_0_net488
*186 clknet_0_net489
*187 clknet_0_net490
*188 clknet_0_net494
*189 clknet_0_net496
*190 clknet_0_net501
*191 clknet_0_net502
*192 clknet_0_net503
*193 clknet_0_net504
*194 clknet_0_net505
*195 clknet_0_net512
*196 clknet_0_net513
*197 clknet_0_net514
*198 clknet_0_net522
*199 clknet_0_net529
*200 clknet_0_net538
*201 clknet_0_net548
*202 clknet_0_net552
*203 clknet_0_net553
*204 clknet_0_net555
*205 clknet_0_net556
*206 clknet_0_net559
*207 clknet_0_net563
*208 clknet_0_net570
*209 clknet_0_net573
*210 clknet_0_net583
*211 clknet_0_net585
*212 clknet_0_net601
*213 clknet_0_net609
*214 clknet_0_net611
*215 clknet_0_net618
*216 clknet_0_net620
*217 clknet_0_net629
*218 clknet_0_net631
*219 clknet_0_net633
*220 clknet_0_net653
*221 clknet_0_net734
*222 clknet_0_net735
*223 clknet_0_net765
*224 clknet_0_net793
*225 clknet_0_net794
*226 clknet_0_net795
*227 clknet_0_net813
*228 clknet_0_net814
*229 clknet_0_net815
*230 clknet_0_net832
*231 clknet_0_net849
*232 clknet_0_net850
*233 clknet_0_net851
*234 clknet_0_net870
*235 clknet_0_net871
*236 clknet_0_net872
*237 clknet_0_net891
*238 clknet_0_net892
*239 clknet_0_net893
*240 clknet_0_net960
*241 clknet_0_net964
*242 clknet_0_net965
*243 clknet_0_net967
*244 clknet_0_net968
*245 clknet_0_net969
*246 clknet_0_net975
*247 clknet_0_net980
*248 clknet_0_net985
*249 clknet_0_net987
*250 clknet_0_net990
*251 clknet_0_net993
*252 clknet_1_0__leaf_net1068
*253 clknet_1_0__leaf_net1069
*254 clknet_1_0__leaf_net147
*255 clknet_1_0__leaf_net153
*256 clknet_1_0__leaf_net156
*257 clknet_1_0__leaf_net164
*258 clknet_1_0__leaf_net165
*259 clknet_1_0__leaf_net172
*260 clknet_1_0__leaf_net174
*261 clknet_1_0__leaf_net175
*262 clknet_1_0__leaf_net176
*263 clknet_1_0__leaf_net178
*264 clknet_1_0__leaf_net180
*265 clknet_1_0__leaf_net182
*266 clknet_1_0__leaf_net186
*267 clknet_1_0__leaf_net187
*268 clknet_1_0__leaf_net193
*269 clknet_1_0__leaf_net198
*270 clknet_1_0__leaf_net199
*271 clknet_1_0__leaf_net202
*272 clknet_1_0__leaf_net204
*273 clknet_1_0__leaf_net206
*274 clknet_1_0__leaf_net207
*275 clknet_1_0__leaf_net248
*276 clknet_1_0__leaf_net249
*277 clknet_1_0__leaf_net250
*278 clknet_1_0__leaf_net251
*279 clknet_1_0__leaf_net252
*280 clknet_1_0__leaf_net254
*281 clknet_1_0__leaf_net263
*282 clknet_1_0__leaf_net265
*283 clknet_1_0__leaf_net266
*284 clknet_1_0__leaf_net269
*285 clknet_1_0__leaf_net271
*286 clknet_1_0__leaf_net275
*287 clknet_1_0__leaf_net281
*288 clknet_1_0__leaf_net287
*289 clknet_1_0__leaf_net290
*290 clknet_1_0__leaf_net295
*291 clknet_1_0__leaf_net297
*292 clknet_1_0__leaf_net299
*293 clknet_1_0__leaf_net304
*294 clknet_1_0__leaf_net305
*295 clknet_1_0__leaf_net308
*296 clknet_1_0__leaf_net312
*297 clknet_1_0__leaf_net313
*298 clknet_1_0__leaf_net314
*299 clknet_1_0__leaf_net357
*300 clknet_1_0__leaf_net362
*301 clknet_1_0__leaf_net364
*302 clknet_1_0__leaf_net372
*303 clknet_1_0__leaf_net376
*304 clknet_1_0__leaf_net377
*305 clknet_1_0__leaf_net389
*306 clknet_1_0__leaf_net390
*307 clknet_1_0__leaf_net398
*308 clknet_1_0__leaf_net401
*309 clknet_1_0__leaf_net414
*310 clknet_1_0__leaf_net420
*311 clknet_1_0__leaf_net428
*312 clknet_1_0__leaf_net434
*313 clknet_1_0__leaf_net436
*314 clknet_1_0__leaf_net445
*315 clknet_1_0__leaf_net446
*316 clknet_1_0__leaf_net447
*317 clknet_1_0__leaf_net448
*318 clknet_1_0__leaf_net450
*319 clknet_1_0__leaf_net455
*320 clknet_1_0__leaf_net459
*321 clknet_1_0__leaf_net461
*322 clknet_1_0__leaf_net462
*323 clknet_1_0__leaf_net463
*324 clknet_1_0__leaf_net472
*325 clknet_1_0__leaf_net474
*326 clknet_1_0__leaf_net487
*327 clknet_1_0__leaf_net488
*328 clknet_1_0__leaf_net489
*329 clknet_1_0__leaf_net490
*330 clknet_1_0__leaf_net494
*331 clknet_1_0__leaf_net496
*332 clknet_1_0__leaf_net501
*333 clknet_1_0__leaf_net502
*334 clknet_1_0__leaf_net503
*335 clknet_1_0__leaf_net504
*336 clknet_1_0__leaf_net505
*337 clknet_1_0__leaf_net512
*338 clknet_1_0__leaf_net513
*339 clknet_1_0__leaf_net514
*340 clknet_1_0__leaf_net522
*341 clknet_1_0__leaf_net529
*342 clknet_1_0__leaf_net538
*343 clknet_1_0__leaf_net548
*344 clknet_1_0__leaf_net552
*345 clknet_1_0__leaf_net553
*346 clknet_1_0__leaf_net555
*347 clknet_1_0__leaf_net556
*348 clknet_1_0__leaf_net559
*349 clknet_1_0__leaf_net563
*350 clknet_1_0__leaf_net570
*351 clknet_1_0__leaf_net573
*352 clknet_1_0__leaf_net583
*353 clknet_1_0__leaf_net585
*354 clknet_1_0__leaf_net601
*355 clknet_1_0__leaf_net609
*356 clknet_1_0__leaf_net611
*357 clknet_1_0__leaf_net618
*358 clknet_1_0__leaf_net620
*359 clknet_1_0__leaf_net629
*360 clknet_1_0__leaf_net631
*361 clknet_1_0__leaf_net633
*362 clknet_1_0__leaf_net653
*363 clknet_1_0__leaf_net734
*364 clknet_1_0__leaf_net735
*365 clknet_1_0__leaf_net765
*366 clknet_1_0__leaf_net793
*367 clknet_1_0__leaf_net794
*368 clknet_1_0__leaf_net795
*369 clknet_1_0__leaf_net813
*370 clknet_1_0__leaf_net814
*371 clknet_1_0__leaf_net815
*372 clknet_1_0__leaf_net832
*373 clknet_1_0__leaf_net849
*374 clknet_1_0__leaf_net850
*375 clknet_1_0__leaf_net851
*376 clknet_1_0__leaf_net870
*377 clknet_1_0__leaf_net871
*378 clknet_1_0__leaf_net872
*379 clknet_1_0__leaf_net891
*380 clknet_1_0__leaf_net892
*381 clknet_1_0__leaf_net893
*382 clknet_1_0__leaf_net960
*383 clknet_1_0__leaf_net964
*384 clknet_1_0__leaf_net965
*385 clknet_1_0__leaf_net967
*386 clknet_1_0__leaf_net968
*387 clknet_1_0__leaf_net969
*388 clknet_1_0__leaf_net975
*389 clknet_1_0__leaf_net980
*390 clknet_1_0__leaf_net985
*391 clknet_1_0__leaf_net987
*392 clknet_1_0__leaf_net990
*393 clknet_1_0__leaf_net993
*394 clknet_1_1__leaf_net1068
*395 clknet_1_1__leaf_net1069
*396 clknet_1_1__leaf_net147
*397 clknet_1_1__leaf_net153
*398 clknet_1_1__leaf_net156
*399 clknet_1_1__leaf_net164
*400 clknet_1_1__leaf_net165
*401 clknet_1_1__leaf_net172
*402 clknet_1_1__leaf_net174
*403 clknet_1_1__leaf_net175
*404 clknet_1_1__leaf_net176
*405 clknet_1_1__leaf_net178
*406 clknet_1_1__leaf_net180
*407 clknet_1_1__leaf_net182
*408 clknet_1_1__leaf_net186
*409 clknet_1_1__leaf_net187
*410 clknet_1_1__leaf_net193
*411 clknet_1_1__leaf_net198
*412 clknet_1_1__leaf_net199
*413 clknet_1_1__leaf_net202
*414 clknet_1_1__leaf_net204
*415 clknet_1_1__leaf_net206
*416 clknet_1_1__leaf_net207
*417 clknet_1_1__leaf_net248
*418 clknet_1_1__leaf_net249
*419 clknet_1_1__leaf_net250
*420 clknet_1_1__leaf_net251
*421 clknet_1_1__leaf_net252
*422 clknet_1_1__leaf_net254
*423 clknet_1_1__leaf_net263
*424 clknet_1_1__leaf_net265
*425 clknet_1_1__leaf_net266
*426 clknet_1_1__leaf_net269
*427 clknet_1_1__leaf_net271
*428 clknet_1_1__leaf_net275
*429 clknet_1_1__leaf_net281
*430 clknet_1_1__leaf_net287
*431 clknet_1_1__leaf_net290
*432 clknet_1_1__leaf_net295
*433 clknet_1_1__leaf_net297
*434 clknet_1_1__leaf_net299
*435 clknet_1_1__leaf_net304
*436 clknet_1_1__leaf_net305
*437 clknet_1_1__leaf_net308
*438 clknet_1_1__leaf_net312
*439 clknet_1_1__leaf_net313
*440 clknet_1_1__leaf_net314
*441 clknet_1_1__leaf_net357
*442 clknet_1_1__leaf_net362
*443 clknet_1_1__leaf_net364
*444 clknet_1_1__leaf_net372
*445 clknet_1_1__leaf_net376
*446 clknet_1_1__leaf_net377
*447 clknet_1_1__leaf_net389
*448 clknet_1_1__leaf_net390
*449 clknet_1_1__leaf_net398
*450 clknet_1_1__leaf_net401
*451 clknet_1_1__leaf_net414
*452 clknet_1_1__leaf_net420
*453 clknet_1_1__leaf_net428
*454 clknet_1_1__leaf_net434
*455 clknet_1_1__leaf_net436
*456 clknet_1_1__leaf_net445
*457 clknet_1_1__leaf_net446
*458 clknet_1_1__leaf_net447
*459 clknet_1_1__leaf_net448
*460 clknet_1_1__leaf_net450
*461 clknet_1_1__leaf_net455
*462 clknet_1_1__leaf_net459
*463 clknet_1_1__leaf_net461
*464 clknet_1_1__leaf_net462
*465 clknet_1_1__leaf_net463
*466 clknet_1_1__leaf_net472
*467 clknet_1_1__leaf_net474
*468 clknet_1_1__leaf_net487
*469 clknet_1_1__leaf_net488
*470 clknet_1_1__leaf_net489
*471 clknet_1_1__leaf_net490
*472 clknet_1_1__leaf_net494
*473 clknet_1_1__leaf_net496
*474 clknet_1_1__leaf_net501
*475 clknet_1_1__leaf_net502
*476 clknet_1_1__leaf_net503
*477 clknet_1_1__leaf_net504
*478 clknet_1_1__leaf_net505
*479 clknet_1_1__leaf_net512
*480 clknet_1_1__leaf_net513
*481 clknet_1_1__leaf_net514
*482 clknet_1_1__leaf_net522
*483 clknet_1_1__leaf_net529
*484 clknet_1_1__leaf_net538
*485 clknet_1_1__leaf_net548
*486 clknet_1_1__leaf_net552
*487 clknet_1_1__leaf_net553
*488 clknet_1_1__leaf_net555
*489 clknet_1_1__leaf_net556
*490 clknet_1_1__leaf_net559
*491 clknet_1_1__leaf_net563
*492 clknet_1_1__leaf_net570
*493 clknet_1_1__leaf_net573
*494 clknet_1_1__leaf_net583
*495 clknet_1_1__leaf_net585
*496 clknet_1_1__leaf_net601
*497 clknet_1_1__leaf_net609
*498 clknet_1_1__leaf_net611
*499 clknet_1_1__leaf_net618
*500 clknet_1_1__leaf_net620
*501 clknet_1_1__leaf_net629
*502 clknet_1_1__leaf_net631
*503 clknet_1_1__leaf_net633
*504 clknet_1_1__leaf_net653
*505 clknet_1_1__leaf_net734
*506 clknet_1_1__leaf_net735
*507 clknet_1_1__leaf_net765
*508 clknet_1_1__leaf_net793
*509 clknet_1_1__leaf_net794
*510 clknet_1_1__leaf_net795
*511 clknet_1_1__leaf_net813
*512 clknet_1_1__leaf_net814
*513 clknet_1_1__leaf_net815
*514 clknet_1_1__leaf_net832
*515 clknet_1_1__leaf_net849
*516 clknet_1_1__leaf_net850
*517 clknet_1_1__leaf_net851
*518 clknet_1_1__leaf_net870
*519 clknet_1_1__leaf_net871
*520 clknet_1_1__leaf_net872
*521 clknet_1_1__leaf_net891
*522 clknet_1_1__leaf_net892
*523 clknet_1_1__leaf_net893
*524 clknet_1_1__leaf_net960
*525 clknet_1_1__leaf_net964
*526 clknet_1_1__leaf_net965
*527 clknet_1_1__leaf_net967
*528 clknet_1_1__leaf_net968
*529 clknet_1_1__leaf_net969
*530 clknet_1_1__leaf_net975
*531 clknet_1_1__leaf_net980
*532 clknet_1_1__leaf_net985
*533 clknet_1_1__leaf_net987
*534 clknet_1_1__leaf_net990
*535 clknet_1_1__leaf_net993
*536 clknet_4_0_0_clk
*537 clknet_4_10_0_clk
*538 clknet_4_11_0_clk
*539 clknet_4_12_0_clk
*540 clknet_4_13_0_clk
*541 clknet_4_14_0_clk
*542 clknet_4_15_0_clk
*543 clknet_4_1_0_clk
*544 clknet_4_2_0_clk
*545 clknet_4_3_0_clk
*546 clknet_4_4_0_clk
*547 clknet_4_5_0_clk
*548 clknet_4_6_0_clk
*549 clknet_4_7_0_clk
*550 clknet_4_8_0_clk
*551 clknet_4_9_0_clk
*552 net0
*553 net1
*554 net10
*555 net100
*556 net1000
*557 net1001
*558 net1002
*559 net1003
*560 net1004
*561 net1005
*562 net1006
*563 net1007
*564 net1008
*565 net1009
*566 net101
*567 net1010
*568 net1011
*569 net1012
*570 net1013
*571 net1014
*572 net1015
*573 net1016
*574 net1017
*575 net1018
*576 net1019
*577 net102
*578 net1020
*579 net1021
*580 net1022
*581 net1023
*582 net1024
*583 net1025
*584 net1026
*585 net1027
*586 net1028
*587 net1029
*588 net103
*589 net1030
*590 net1031
*591 net1032
*592 net1033
*593 net1034
*594 net1035
*595 net1036
*596 net1037
*597 net1038
*598 net1039
*599 net104
*600 net1040
*601 net1041
*602 net1042
*603 net1043
*604 net1044
*605 net1045
*606 net1046
*607 net1047
*608 net1048
*609 net1049
*610 net105
*611 net1050
*612 net1051
*613 net1052
*614 net1053
*615 net1054
*616 net1055
*617 net1056
*618 net1057
*619 net1058
*620 net1059
*621 net106
*622 net1060
*623 net1061
*624 net1062
*625 net1063
*626 net1064
*627 net1065
*628 net1066
*629 net1067
*630 net1068
*631 net1069
*632 net107
*633 net1070
*634 net1071
*635 net1072
*636 net1073
*637 net1074
*638 net1075
*639 net1076
*640 net1077
*641 net1078
*642 net1079
*643 net108
*644 net1080
*645 net1081
*646 net1082
*647 net1083
*648 net1084
*649 net1085
*650 net1086
*651 net1087
*652 net1088
*653 net1089
*654 net109
*655 net1090
*656 net1091
*657 net1092
*658 net1093
*659 net11
*660 net110
*661 net111
*662 net112
*663 net113
*664 net114
*665 net115
*666 net116
*667 net117
*668 net118
*669 net119
*670 net12
*671 net120
*672 net121
*673 net122
*674 net123
*675 net124
*676 net125
*677 net126
*678 net127
*679 net128
*680 net129
*681 net13
*682 net130
*683 net131
*684 net132
*685 net133
*686 net134
*687 net135
*688 net136
*689 net137
*690 net138
*691 net139
*692 net14
*693 net140
*694 net141
*695 net142
*696 net143
*697 net144
*698 net145
*699 net146
*700 net147
*701 net148
*702 net149
*703 net15
*704 net150
*705 net151
*706 net152
*707 net153
*708 net154
*709 net155
*710 net156
*711 net157
*712 net158
*713 net159
*714 net16
*715 net160
*716 net161
*717 net162
*718 net163
*719 net164
*720 net165
*721 net166
*722 net167
*723 net168
*724 net169
*725 net17
*726 net170
*727 net171
*728 net172
*729 net173
*730 net174
*731 net175
*732 net176
*733 net177
*734 net178
*735 net179
*736 net18
*737 net180
*738 net181
*739 net182
*740 net183
*741 net184
*742 net185
*743 net186
*744 net187
*745 net188
*746 net189
*747 net19
*748 net190
*749 net191
*750 net192
*751 net193
*752 net194
*753 net195
*754 net196
*755 net197
*756 net198
*757 net199
*758 net2
*759 net20
*760 net200
*761 net201
*762 net202
*763 net203
*764 net204
*765 net205
*766 net206
*767 net207
*768 net208
*769 net209
*770 net21
*771 net210
*772 net211
*773 net212
*774 net213
*775 net214
*776 net215
*777 net216
*778 net217
*779 net218
*780 net219
*781 net22
*782 net220
*783 net221
*784 net222
*785 net223
*786 net224
*787 net225
*788 net226
*789 net227
*790 net228
*791 net229
*792 net23
*793 net230
*794 net231
*795 net232
*796 net233
*797 net234
*798 net235
*799 net236
*800 net237
*801 net238
*802 net239
*803 net24
*804 net240
*805 net241
*806 net242
*807 net243
*808 net244
*809 net245
*810 net246
*811 net247
*812 net248
*813 net249
*814 net25
*815 net250
*816 net251
*817 net252
*818 net253
*819 net254
*820 net255
*821 net256
*822 net257
*823 net258
*824 net259
*825 net26
*826 net260
*827 net261
*828 net262
*829 net263
*830 net264
*831 net265
*832 net266
*833 net267
*834 net268
*835 net269
*836 net27
*837 net270
*838 net271
*839 net272
*840 net273
*841 net274
*842 net275
*843 net276
*844 net277
*845 net278
*846 net279
*847 net28
*848 net280
*849 net281
*850 net282
*851 net283
*852 net284
*853 net285
*854 net286
*855 net287
*856 net288
*857 net289
*858 net29
*859 net290
*860 net291
*861 net292
*862 net293
*863 net294
*864 net295
*865 net296
*866 net297
*867 net298
*868 net299
*869 net3
*870 net30
*871 net300
*872 net301
*873 net302
*874 net303
*875 net304
*876 net305
*877 net306
*878 net307
*879 net308
*880 net309
*881 net31
*882 net310
*883 net311
*884 net312
*885 net313
*886 net314
*887 net315
*888 net316
*889 net317
*890 net318
*891 net319
*892 net32
*893 net320
*894 net321
*895 net322
*896 net323
*897 net324
*898 net325
*899 net326
*900 net327
*901 net328
*902 net329
*903 net33
*904 net330
*905 net331
*906 net332
*907 net333
*908 net334
*909 net335
*910 net336
*911 net337
*912 net338
*913 net339
*914 net34
*915 net340
*916 net341
*917 net342
*918 net343
*919 net344
*920 net345
*921 net346
*922 net347
*923 net348
*924 net349
*925 net35
*926 net350
*927 net351
*928 net352
*929 net353
*930 net354
*931 net355
*932 net356
*933 net357
*934 net358
*935 net359
*936 net36
*937 net360
*938 net361
*939 net362
*940 net363
*941 net364
*942 net365
*943 net366
*944 net367
*945 net368
*946 net369
*947 net37
*948 net370
*949 net371
*950 net372
*951 net373
*952 net374
*953 net375
*954 net376
*955 net377
*956 net378
*957 net379
*958 net38
*959 net380
*960 net381
*961 net382
*962 net383
*963 net384
*964 net385
*965 net386
*966 net387
*967 net388
*968 net389
*969 net39
*970 net390
*971 net391
*972 net392
*973 net393
*974 net394
*975 net395
*976 net396
*977 net397
*978 net398
*979 net399
*980 net4
*981 net40
*982 net400
*983 net401
*984 net402
*985 net403
*986 net404
*987 net405
*988 net406
*989 net407
*990 net408
*991 net409
*992 net41
*993 net410
*994 net411
*995 net412
*996 net413
*997 net414
*998 net415
*999 net416
*1000 net417
*1001 net418
*1002 net419
*1003 net42
*1004 net420
*1005 net421
*1006 net422
*1007 net423
*1008 net424
*1009 net425
*1010 net426
*1011 net427
*1012 net428
*1013 net429
*1014 net43
*1015 net430
*1016 net431
*1017 net432
*1018 net433
*1019 net434
*1020 net435
*1021 net436
*1022 net437
*1023 net438
*1024 net439
*1025 net44
*1026 net440
*1027 net441
*1028 net442
*1029 net443
*1030 net444
*1031 net445
*1032 net446
*1033 net447
*1034 net448
*1035 net449
*1036 net45
*1037 net450
*1038 net451
*1039 net452
*1040 net453
*1041 net454
*1042 net455
*1043 net456
*1044 net457
*1045 net458
*1046 net459
*1047 net46
*1048 net460
*1049 net461
*1050 net462
*1051 net463
*1052 net464
*1053 net465
*1054 net466
*1055 net467
*1056 net468
*1057 net469
*1058 net47
*1059 net470
*1060 net471
*1061 net472
*1062 net473
*1063 net474
*1064 net475
*1065 net476
*1066 net477
*1067 net478
*1068 net479
*1069 net48
*1070 net480
*1071 net481
*1072 net482
*1073 net483
*1074 net484
*1075 net485
*1076 net486
*1077 net487
*1078 net488
*1079 net489
*1080 net49
*1081 net490
*1082 net491
*1083 net492
*1084 net493
*1085 net494
*1086 net495
*1087 net496
*1088 net497
*1089 net498
*1090 net499
*1091 net5
*1092 net50
*1093 net500
*1094 net501
*1095 net502
*1096 net503
*1097 net504
*1098 net505
*1099 net506
*1100 net507
*1101 net508
*1102 net509
*1103 net51
*1104 net510
*1105 net511
*1106 net512
*1107 net513
*1108 net514
*1109 net515
*1110 net516
*1111 net517
*1112 net518
*1113 net519
*1114 net52
*1115 net520
*1116 net521
*1117 net522
*1118 net523
*1119 net524
*1120 net525
*1121 net526
*1122 net527
*1123 net528
*1124 net529
*1125 net53
*1126 net530
*1127 net531
*1128 net532
*1129 net533
*1130 net534
*1131 net535
*1132 net536
*1133 net537
*1134 net538
*1135 net539
*1136 net54
*1137 net540
*1138 net541
*1139 net542
*1140 net543
*1141 net544
*1142 net545
*1143 net546
*1144 net547
*1145 net548
*1146 net549
*1147 net55
*1148 net550
*1149 net551
*1150 net552
*1151 net553
*1152 net554
*1153 net555
*1154 net556
*1155 net557
*1156 net558
*1157 net559
*1158 net56
*1159 net560
*1160 net561
*1161 net562
*1162 net563
*1163 net564
*1164 net565
*1165 net566
*1166 net567
*1167 net568
*1168 net569
*1169 net57
*1170 net570
*1171 net571
*1172 net572
*1173 net573
*1174 net574
*1175 net575
*1176 net576
*1177 net577
*1178 net578
*1179 net579
*1180 net58
*1181 net580
*1182 net581
*1183 net582
*1184 net583
*1185 net584
*1186 net585
*1187 net586
*1188 net587
*1189 net588
*1190 net589
*1191 net59
*1192 net590
*1193 net591
*1194 net592
*1195 net593
*1196 net594
*1197 net595
*1198 net596
*1199 net597
*1200 net598
*1201 net599
*1202 net6
*1203 net60
*1204 net600
*1205 net601
*1206 net602
*1207 net603
*1208 net604
*1209 net605
*1210 net606
*1211 net607
*1212 net608
*1213 net609
*1214 net61
*1215 net610
*1216 net611
*1217 net612
*1218 net613
*1219 net614
*1220 net615
*1221 net616
*1222 net617
*1223 net618
*1224 net619
*1225 net62
*1226 net620
*1227 net621
*1228 net622
*1229 net623
*1230 net624
*1231 net625
*1232 net626
*1233 net627
*1234 net628
*1235 net629
*1236 net63
*1237 net630
*1238 net631
*1239 net632
*1240 net633
*1241 net634
*1242 net635
*1243 net636
*1244 net637
*1245 net638
*1246 net639
*1247 net64
*1248 net640
*1249 net641
*1250 net642
*1251 net643
*1252 net644
*1253 net645
*1254 net646
*1255 net647
*1256 net648
*1257 net649
*1258 net65
*1259 net650
*1260 net651
*1261 net652
*1262 net653
*1263 net654
*1264 net655
*1265 net656
*1266 net657
*1267 net658
*1268 net659
*1269 net66
*1270 net660
*1271 net661
*1272 net662
*1273 net663
*1274 net664
*1275 net665
*1276 net666
*1277 net667
*1278 net668
*1279 net669
*1280 net67
*1281 net670
*1282 net671
*1283 net672
*1284 net673
*1285 net674
*1286 net675
*1287 net676
*1288 net677
*1289 net678
*1290 net679
*1291 net68
*1292 net680
*1293 net681
*1294 net682
*1295 net683
*1296 net684
*1297 net685
*1298 net686
*1299 net687
*1300 net688
*1301 net689
*1302 net69
*1303 net690
*1304 net691
*1305 net692
*1306 net693
*1307 net694
*1308 net695
*1309 net696
*1310 net697
*1311 net698
*1312 net699
*1313 net7
*1314 net70
*1315 net700
*1316 net701
*1317 net702
*1318 net703
*1319 net704
*1320 net705
*1321 net706
*1322 net707
*1323 net708
*1324 net709
*1325 net71
*1326 net710
*1327 net711
*1328 net712
*1329 net713
*1330 net714
*1331 net715
*1332 net716
*1333 net717
*1334 net718
*1335 net719
*1336 net72
*1337 net720
*1338 net721
*1339 net722
*1340 net723
*1341 net724
*1342 net725
*1343 net726
*1344 net727
*1345 net728
*1346 net729
*1347 net73
*1348 net730
*1349 net731
*1350 net732
*1351 net733
*1352 net734
*1353 net735
*1354 net736
*1355 net737
*1356 net738
*1357 net739
*1358 net74
*1359 net740
*1360 net741
*1361 net742
*1362 net743
*1363 net744
*1364 net745
*1365 net746
*1366 net747
*1367 net748
*1368 net749
*1369 net75
*1370 net750
*1371 net751
*1372 net752
*1373 net753
*1374 net754
*1375 net755
*1376 net756
*1377 net757
*1378 net758
*1379 net759
*1380 net76
*1381 net760
*1382 net761
*1383 net762
*1384 net763
*1385 net764
*1386 net765
*1387 net766
*1388 net767
*1389 net768
*1390 net769
*1391 net77
*1392 net770
*1393 net771
*1394 net772
*1395 net773
*1396 net774
*1397 net775
*1398 net776
*1399 net777
*1400 net778
*1401 net779
*1402 net78
*1403 net780
*1404 net781
*1405 net782
*1406 net783
*1407 net784
*1408 net785
*1409 net786
*1410 net787
*1411 net788
*1412 net789
*1413 net79
*1414 net790
*1415 net791
*1416 net792
*1417 net793
*1418 net794
*1419 net795
*1420 net796
*1421 net797
*1422 net798
*1423 net799
*1424 net8
*1425 net80
*1426 net800
*1427 net801
*1428 net802
*1429 net803
*1430 net804
*1431 net805
*1432 net806
*1433 net807
*1434 net808
*1435 net809
*1436 net81
*1437 net810
*1438 net811
*1439 net812
*1440 net813
*1441 net814
*1442 net815
*1443 net816
*1444 net817
*1445 net818
*1446 net819
*1447 net82
*1448 net820
*1449 net821
*1450 net822
*1451 net823
*1452 net824
*1453 net825
*1454 net826
*1455 net827
*1456 net828
*1457 net829
*1458 net83
*1459 net830
*1460 net831
*1461 net832
*1462 net833
*1463 net834
*1464 net835
*1465 net836
*1466 net837
*1467 net838
*1468 net839
*1469 net84
*1470 net840
*1471 net841
*1472 net842
*1473 net843
*1474 net844
*1475 net845
*1476 net846
*1477 net847
*1478 net848
*1479 net849
*1480 net85
*1481 net850
*1482 net851
*1483 net852
*1484 net853
*1485 net854
*1486 net855
*1487 net856
*1488 net857
*1489 net858
*1490 net859
*1491 net86
*1492 net860
*1493 net861
*1494 net862
*1495 net863
*1496 net864
*1497 net865
*1498 net866
*1499 net867
*1500 net868
*1501 net869
*1502 net87
*1503 net870
*1504 net871
*1505 net872
*1506 net873
*1507 net874
*1508 net875
*1509 net876
*1510 net877
*1511 net878
*1512 net879
*1513 net88
*1514 net880
*1515 net881
*1516 net882
*1517 net883
*1518 net884
*1519 net885
*1520 net886
*1521 net887
*1522 net888
*1523 net889
*1524 net89
*1525 net890
*1526 net891
*1527 net892
*1528 net893
*1529 net894
*1530 net895
*1531 net896
*1532 net897
*1533 net898
*1534 net899
*1535 net9
*1536 net90
*1537 net900
*1538 net901
*1539 net902
*1540 net903
*1541 net904
*1542 net905
*1543 net906
*1544 net907
*1545 net908
*1546 net909
*1547 net91
*1548 net910
*1549 net911
*1550 net912
*1551 net913
*1552 net914
*1553 net915
*1554 net916
*1555 net917
*1556 net918
*1557 net919
*1558 net92
*1559 net920
*1560 net921
*1561 net922
*1562 net923
*1563 net924
*1564 net925
*1565 net926
*1566 net927
*1567 net928
*1568 net929
*1569 net93
*1570 net930
*1571 net931
*1572 net932
*1573 net933
*1574 net934
*1575 net935
*1576 net936
*1577 net937
*1578 net938
*1579 net939
*1580 net94
*1581 net940
*1582 net941
*1583 net942
*1584 net943
*1585 net944
*1586 net945
*1587 net946
*1588 net947
*1589 net948
*1590 net949
*1591 net95
*1592 net950
*1593 net951
*1594 net952
*1595 net953
*1596 net954
*1597 net955
*1598 net956
*1599 net957
*1600 net958
*1601 net959
*1602 net96
*1603 net960
*1604 net961
*1605 net962
*1606 net963
*1607 net964
*1608 net965
*1609 net966
*1610 net967
*1611 net968
*1612 net969
*1613 net97
*1614 net970
*1615 net971
*1616 net972
*1617 net973
*1618 net974
*1619 net975
*1620 net976
*1621 net977
*1622 net978
*1623 net979
*1624 net98
*1625 net980
*1626 net981
*1627 net982
*1628 net983
*1629 net984
*1630 net985
*1631 net986
*1632 net987
*1633 net988
*1634 net989
*1635 net99
*1636 net990
*1637 net991
*1638 net992
*1639 net993
*1640 net994
*1641 net995
*1642 net996
*1643 net997
*1644 net998
*1645 net999
*1646 ANTENNA_1
*1647 ANTENNA_2
*1648 ANTENNA_c100_A3
*1649 ANTENNA_c100_X
*1650 ANTENNA_c101_CLK_N
*1651 ANTENNA_c101_Q
*1652 ANTENNA_c101_SCE
*1653 ANTENNA_c101_SET_B
*1654 ANTENNA_c102_A4
*1655 ANTENNA_c103_A3
*1656 ANTENNA_c103_S1
*1657 ANTENNA_c104_X
*1658 ANTENNA_c105_A1
*1659 ANTENNA_c105_A3
*1660 ANTENNA_c106_A1
*1661 ANTENNA_c106_S0
*1662 ANTENNA_c107_A1
*1663 ANTENNA_c107_S1
*1664 ANTENNA_c107_X
*1665 ANTENNA_c108_CLK_N
*1666 ANTENNA_c108_Q
*1667 ANTENNA_c108_Q_N
*1668 ANTENNA_c108_SCD
*1669 ANTENNA_c108_SCE
*1670 ANTENNA_c109_CLK
*1671 ANTENNA_c109_SCE
*1672 ANTENNA_c111_A1
*1673 ANTENNA_c111_B1_N
*1674 ANTENNA_c112_A2
*1675 ANTENNA_c112_B1
*1676 ANTENNA_c113_B1_N
*1677 ANTENNA_c115_A2
*1678 ANTENNA_c116_A2
*1679 ANTENNA_c116_B1_N
*1680 ANTENNA_c117_A1
*1681 ANTENNA_c117_A2
*1682 ANTENNA_c117_B1
*1683 ANTENNA_c121_A3
*1684 ANTENNA_c123_S0
*1685 ANTENNA_c123_S1
*1686 ANTENNA_c124_A1
*1687 ANTENNA_c126_A1
*1688 ANTENNA_c126_S1
*1689 ANTENNA_c127_CLK_N
*1690 ANTENNA_c127_SCD
*1691 ANTENNA_c128_A3
*1692 ANTENNA_c129_B1
*1693 ANTENNA_c131_A2
*1694 ANTENNA_c132_A
*1695 ANTENNA_c132_B
*1696 ANTENNA_c133_A2
*1697 ANTENNA_c133_X
*1698 ANTENNA_c134_A_N
*1699 ANTENNA_c135_A1
*1700 ANTENNA_c135_A2
*1701 ANTENNA_c135_X
*1702 ANTENNA_c136_A1
*1703 ANTENNA_c136_A2
*1704 ANTENNA_c136_B1
*1705 ANTENNA_c136_Y
*1706 ANTENNA_c137_A1
*1707 ANTENNA_c137_X
*1708 ANTENNA_c138_A1
*1709 ANTENNA_c138_A2
*1710 ANTENNA_c138_B1
*1711 ANTENNA_c139_A2
*1712 ANTENNA_c139_A4
*1713 ANTENNA_c141_A0
*1714 ANTENNA_c141_A1
*1715 ANTENNA_c142_X
*1716 ANTENNA_c143_A4
*1717 ANTENNA_c143_B1
*1718 ANTENNA_c143_X
*1719 ANTENNA_c144_A4
*1720 ANTENNA_c144_B1
*1721 ANTENNA_c144_X
*1722 ANTENNA_c145_A1
*1723 ANTENNA_c145_A3
*1724 ANTENNA_c145_A4
*1725 ANTENNA_c145_B1
*1726 ANTENNA_c146_A3
*1727 ANTENNA_c146_B1
*1728 ANTENNA_c147_A1
*1729 ANTENNA_c147_A4
*1730 ANTENNA_c147_B1
*1731 ANTENNA_c147_Y
*1732 ANTENNA_c148_A0
*1733 ANTENNA_c148_A3
*1734 ANTENNA_c148_S1
*1735 ANTENNA_c148_X
*1736 ANTENNA_c149_A0
*1737 ANTENNA_c149_A2
*1738 ANTENNA_c149_A3
*1739 ANTENNA_c149_S1
*1740 ANTENNA_c149_X
*1741 ANTENNA_c150_A1
*1742 ANTENNA_c150_A2
*1743 ANTENNA_c150_S0
*1744 ANTENNA_c150_S1
*1745 ANTENNA_c151_A0
*1746 ANTENNA_c151_X
*1747 ANTENNA_c152_A1
*1748 ANTENNA_c152_A2
*1749 ANTENNA_c152_S1
*1750 ANTENNA_c153_A1
*1751 ANTENNA_c153_A2
*1752 ANTENNA_c153_S0
*1753 ANTENNA_c153_S1
*1754 ANTENNA_c154_A1
*1755 ANTENNA_c154_A2
*1756 ANTENNA_c154_B1
*1757 ANTENNA_c154_X
*1758 ANTENNA_c155_A2
*1759 ANTENNA_c155_B1_N
*1760 ANTENNA_c155_Y
*1761 ANTENNA_c156_A2
*1762 ANTENNA_c156_B1
*1763 ANTENNA_c157_A1
*1764 ANTENNA_c157_A2
*1765 ANTENNA_c157_B1_N
*1766 ANTENNA_c157_Y
*1767 ANTENNA_c158_A1
*1768 ANTENNA_c158_A3
*1769 ANTENNA_c158_B1
*1770 ANTENNA_c158_Y
*1771 ANTENNA_c159_A0
*1772 ANTENNA_c159_A1
*1773 ANTENNA_c159_S
*1774 ANTENNA_c159_X
*1775 ANTENNA_c160_A0
*1776 ANTENNA_c160_A2
*1777 ANTENNA_c160_A3
*1778 ANTENNA_c160_S1
*1779 ANTENNA_c160_X
*1780 ANTENNA_c161_A0
*1781 ANTENNA_c161_A1
*1782 ANTENNA_c161_X
*1783 ANTENNA_c162_A2
*1784 ANTENNA_c162_B1_N
*1785 ANTENNA_c163_B1_N
*1786 ANTENNA_c164_A1
*1787 ANTENNA_c164_A3
*1788 ANTENNA_c164_S0
*1789 ANTENNA_c164_S1
*1790 ANTENNA_c164_X
*1791 ANTENNA_c165_A2
*1792 ANTENNA_c165_B1_N
*1793 ANTENNA_c165_Y
*1794 ANTENNA_c166_B1
*1795 ANTENNA_c167_A1