*SPEF "ieee 1481-1999"
*DESIGN "netlist_2"
*DATE "18:39:42 Tuesday July 23, 2024"
*VENDOR "The OpenROAD Project"
*PROGRAM "OpenROAD"
*VERSION "d423155d69de7f683a23f6916ead418a615ad4ad"
*DESIGN_FLOW "NAME_SCOPE LOCAL" "PIN_CAP NONE"
*DIVIDER /
*DELIMITER :
*BUS_DELIMITER []
*T_UNIT 1 NS
*C_UNIT 1 PF
*R_UNIT 1 OHM
*L_UNIT 1 HENRY

*NAME_MAP
*3 clk
*4 in0
*5 in1
*6 in10
*7 in11
*8 in12
*9 in13
*10 in14
*11 in15
*12 in16
*13 in17
*14 in18
*15 in19
*16 in2
*17 in20
*18 in21
*19 in22
*20 in23
*21 in24
*22 in25
*23 in26
*24 in27
*25 in28
*26 in29
*27 in3
*28 in30
*29 in31
*30 in32
*31 in33
*32 in34
*33 in35
*34 in36
*35 in37
*36 in38
*37 in39
*38 in4
*39 in40
*40 in41
*41 in42
*42 in43
*43 in44
*44 in45
*45 in46
*46 in47
*47 in48
*48 in49
*49 in5
*50 in50
*51 in51
*52 in6
*53 in7
*54 in8
*55 in9
*56 out0
*57 out1
*58 out10
*59 out11
*60 out12
*61 out13
*62 out14
*63 out15
*64 out16
*65 out17
*66 out18
*67 out19
*68 out2
*69 out20
*70 out21
*71 out22
*72 out23
*73 out24
*74 out25
*75 out26
*76 out27
*77 out28
*78 out29
*79 out3
*80 out30
*81 out31
*82 out32
*83 out33
*84 out34
*85 out35
*86 out36
*87 out37
*88 out38
*89 out39
*90 out4
*91 out40
*92 out41
*93 out42
*94 out43
*95 out44
*96 out45
*97 out46
*98 out47
*99 out48
*100 out49
*101 out5
*102 out50
*103 out51
*104 out6
*105 out7
*106 out8
*107 out9
*108 rst
*109 clknet_0_clk
*110 clknet_0_net181
*111 clknet_0_net182
*112 clknet_0_net183
*113 clknet_0_net184
*114 clknet_0_net185
*115 clknet_0_net186
*116 clknet_0_net187
*117 clknet_0_net188
*118 clknet_0_net189
*119 clknet_0_net190
*120 clknet_0_net191
*121 clknet_0_net192
*122 clknet_0_net193
*123 clknet_0_net194
*124 clknet_0_net195
*125 clknet_0_net198
*126 clknet_0_net199
*127 clknet_0_net203
*128 clknet_0_net204
*129 clknet_0_net205
*130 clknet_0_net206
*131 clknet_0_net207
*132 clknet_0_net208
*133 clknet_0_net211
*134 clknet_0_net213
*135 clknet_0_net221
*136 clknet_0_net327
*137 clknet_0_net332
*138 clknet_0_net341
*139 clknet_0_net342
*140 clknet_0_net345
*141 clknet_0_net346
*142 clknet_0_net347
*143 clknet_0_net348
*144 clknet_0_net60
*145 clknet_0_net61
*146 clknet_0_net62
*147 clknet_0_net63
*148 clknet_0_net64
*149 clknet_0_net65
*150 clknet_0_net66
*151 clknet_0_net67
*152 clknet_0_net68
*153 clknet_0_net69
*154 clknet_0_net70
*155 clknet_0_net71
*156 clknet_0_net72
*157 clknet_0_net721
*158 clknet_0_net722
*159 clknet_0_net723
*160 clknet_0_net73
*161 clknet_0_net739
*162 clknet_0_net740
*163 clknet_0_net757
*164 clknet_0_net758
*165 clknet_0_net775
*166 clknet_0_net776
*167 clknet_0_net791
*168 clknet_0_net792
*169 clknet_0_net793
*170 clknet_0_net85
*171 clknet_0_net86
*172 clknet_0_net863
*173 clknet_0_net865
*174 clknet_0_net866
*175 clknet_0_net869
*176 clknet_0_net870
*177 clknet_0_net872
*178 clknet_0_net876
*179 clknet_0_net877
*180 clknet_1_0__leaf_net181
*181 clknet_1_0__leaf_net182
*182 clknet_1_0__leaf_net183
*183 clknet_1_0__leaf_net184
*184 clknet_1_0__leaf_net185
*185 clknet_1_0__leaf_net186
*186 clknet_1_0__leaf_net187
*187 clknet_1_0__leaf_net188
*188 clknet_1_0__leaf_net189
*189 clknet_1_0__leaf_net190
*190 clknet_1_0__leaf_net191
*191 clknet_1_0__leaf_net192
*192 clknet_1_0__leaf_net193
*193 clknet_1_0__leaf_net194
*194 clknet_1_0__leaf_net195
*195 clknet_1_0__leaf_net198
*196 clknet_1_0__leaf_net199
*197 clknet_1_0__leaf_net203
*198 clknet_1_0__leaf_net204
*199 clknet_1_0__leaf_net205
*200 clknet_1_0__leaf_net206
*201 clknet_1_0__leaf_net207
*202 clknet_1_0__leaf_net208
*203 clknet_1_0__leaf_net211
*204 clknet_1_0__leaf_net213
*205 clknet_1_0__leaf_net221
*206 clknet_1_0__leaf_net327
*207 clknet_1_0__leaf_net332
*208 clknet_1_0__leaf_net341
*209 clknet_1_0__leaf_net342
*210 clknet_1_0__leaf_net345
*211 clknet_1_0__leaf_net346
*212 clknet_1_0__leaf_net347
*213 clknet_1_0__leaf_net348
*214 clknet_1_0__leaf_net60
*215 clknet_1_0__leaf_net61
*216 clknet_1_0__leaf_net62
*217 clknet_1_0__leaf_net63
*218 clknet_1_0__leaf_net64
*219 clknet_1_0__leaf_net65
*220 clknet_1_0__leaf_net66
*221 clknet_1_0__leaf_net67
*222 clknet_1_0__leaf_net68
*223 clknet_1_0__leaf_net69
*224 clknet_1_0__leaf_net70
*225 clknet_1_0__leaf_net71
*226 clknet_1_0__leaf_net72
*227 clknet_1_0__leaf_net721
*228 clknet_1_0__leaf_net722
*229 clknet_1_0__leaf_net723
*230 clknet_1_0__leaf_net73
*231 clknet_1_0__leaf_net739
*232 clknet_1_0__leaf_net740
*233 clknet_1_0__leaf_net757
*234 clknet_1_0__leaf_net758
*235 clknet_1_0__leaf_net775
*236 clknet_1_0__leaf_net776
*237 clknet_1_0__leaf_net791
*238 clknet_1_0__leaf_net792
*239 clknet_1_0__leaf_net793
*240 clknet_1_0__leaf_net85
*241 clknet_1_0__leaf_net86
*242 clknet_1_0__leaf_net863
*243 clknet_1_0__leaf_net865
*244 clknet_1_0__leaf_net866
*245 clknet_1_0__leaf_net869
*246 clknet_1_0__leaf_net870
*247 clknet_1_0__leaf_net872
*248 clknet_1_0__leaf_net876
*249 clknet_1_0__leaf_net877
*250 clknet_1_1__leaf_net181
*251 clknet_1_1__leaf_net182
*252 clknet_1_1__leaf_net183
*253 clknet_1_1__leaf_net184
*254 clknet_1_1__leaf_net185
*255 clknet_1_1__leaf_net186
*256 clknet_1_1__leaf_net187
*257 clknet_1_1__leaf_net188
*258 clknet_1_1__leaf_net189
*259 clknet_1_1__leaf_net190
*260 clknet_1_1__leaf_net191
*261 clknet_1_1__leaf_net192
*262 clknet_1_1__leaf_net193
*263 clknet_1_1__leaf_net194
*264 clknet_1_1__leaf_net195
*265 clknet_1_1__leaf_net198
*266 clknet_1_1__leaf_net199
*267 clknet_1_1__leaf_net203
*268 clknet_1_1__leaf_net204
*269 clknet_1_1__leaf_net205
*270 clknet_1_1__leaf_net206
*271 clknet_1_1__leaf_net207
*272 clknet_1_1__leaf_net208
*273 clknet_1_1__leaf_net211
*274 clknet_1_1__leaf_net213
*275 clknet_1_1__leaf_net221
*276 clknet_1_1__leaf_net327
*277 clknet_1_1__leaf_net332
*278 clknet_1_1__leaf_net341
*279 clknet_1_1__leaf_net342
*280 clknet_1_1__leaf_net345
*281 clknet_1_1__leaf_net346
*282 clknet_1_1__leaf_net347
*283 clknet_1_1__leaf_net348
*284 clknet_1_1__leaf_net60
*285 clknet_1_1__leaf_net61
*286 clknet_1_1__leaf_net62
*287 clknet_1_1__leaf_net63
*288 clknet_1_1__leaf_net64
*289 clknet_1_1__leaf_net65
*290 clknet_1_1__leaf_net66
*291 clknet_1_1__leaf_net67
*292 clknet_1_1__leaf_net68
*293 clknet_1_1__leaf_net69
*294 clknet_1_1__leaf_net70
*295 clknet_1_1__leaf_net71
*296 clknet_1_1__leaf_net72
*297 clknet_1_1__leaf_net721
*298 clknet_1_1__leaf_net722
*299 clknet_1_1__leaf_net723
*300 clknet_1_1__leaf_net73
*301 clknet_1_1__leaf_net739
*302 clknet_1_1__leaf_net740
*303 clknet_1_1__leaf_net757
*304 clknet_1_1__leaf_net758
*305 clknet_1_1__leaf_net775
*306 clknet_1_1__leaf_net776
*307 clknet_1_1__leaf_net791
*308 clknet_1_1__leaf_net792
*309 clknet_1_1__leaf_net793
*310 clknet_1_1__leaf_net85
*311 clknet_1_1__leaf_net86
*312 clknet_1_1__leaf_net863
*313 clknet_1_1__leaf_net865
*314 clknet_1_1__leaf_net866
*315 clknet_1_1__leaf_net869
*316 clknet_1_1__leaf_net870
*317 clknet_1_1__leaf_net872
*318 clknet_1_1__leaf_net876
*319 clknet_1_1__leaf_net877
*320 clknet_4_0_0_clk
*321 clknet_4_10_0_clk
*322 clknet_4_11_0_clk
*323 clknet_4_12_0_clk
*324 clknet_4_13_0_clk
*325 clknet_4_14_0_clk
*326 clknet_4_15_0_clk
*327 clknet_4_1_0_clk
*328 clknet_4_2_0_clk
*329 clknet_4_3_0_clk
*330 clknet_4_4_0_clk
*331 clknet_4_5_0_clk
*332 clknet_4_6_0_clk
*333 clknet_4_7_0_clk
*334 clknet_4_8_0_clk
*335 clknet_4_9_0_clk
*336 net0
*337 net1
*338 net10
*339 net100
*340 net101
*341 net102
*342 net103
*343 net104
*344 net105
*345 net106
*346 net107
*347 net108
*348 net109
*349 net11
*350 net110
*351 net111
*352 net112
*353 net113
*354 net114
*355 net115
*356 net116
*357 net117
*358 net118
*359 net119
*360 net12
*361 net120
*362 net121
*363 net122
*364 net123
*365 net124
*366 net125
*367 net126
*368 net127
*369 net128
*370 net129
*371 net13
*372 net130
*373 net131
*374 net132
*375 net133
*376 net134
*377 net135
*378 net136
*379 net137
*380 net138
*381 net139
*382 net14
*383 net140
*384 net141
*385 net142
*386 net143
*387 net144
*388 net145
*389 net146
*390 net147
*391 net148
*392 net149
*393 net15
*394 net150
*395 net151
*396 net152
*397 net153
*398 net154
*399 net155
*400 net156
*401 net157
*402 net158
*403 net159
*404 net16
*405 net160
*406 net161
*407 net162
*408 net163
*409 net164
*410 net165
*411 net166
*412 net167
*413 net168
*414 net169
*415 net17
*416 net170
*417 net171
*418 net172
*419 net173
*420 net174
*421 net175
*422 net176
*423 net177
*424 net178
*425 net179
*426 net18
*427 net180
*428 net181
*429 net182
*430 net183
*431 net184
*432 net185
*433 net186
*434 net187
*435 net188
*436 net189
*437 net19
*438 net190
*439 net191
*440 net192
*441 net193
*442 net194
*443 net195
*444 net196
*445 net197
*446 net198
*447 net199
*448 net2
*449 net20
*450 net200
*451 net201
*452 net202
*453 net203
*454 net204
*455 net205
*456 net206
*457 net207
*458 net208
*459 net209
*460 net21
*461 net210
*462 net211
*463 net212
*464 net213
*465 net214
*466 net215
*467 net216
*468 net217
*469 net218
*470 net219
*471 net22
*472 net220
*473 net221
*474 net222
*475 net223
*476 net224
*477 net225
*478 net226
*479 net227
*480 net228
*481 net229
*482 net23
*483 net230
*484 net231
*485 net232
*486 net233
*487 net234
*488 net235
*489 net236
*490 net237
*491 net238
*492 net239
*493 net24
*494 net240
*495 net241
*496 net242
*497 net243
*498 net244
*499 net245
*500 net246
*501 net247
*502 net248
*503 net249
*504 net25
*505 net250
*506 net251
*507 net252
*508 net253
*509 net254
*510 net255
*511 net256
*512 net257
*513 net258
*514 net259
*515 net26
*516 net260
*517 net261
*518 net262
*519 net263
*520 net264
*521 net265
*522 net266
*523 net267
*524 net268
*525 net269
*526 net27
*527 net270
*528 net271
*529 net272
*530 net273
*531 net274
*532 net275
*533 net276
*534 net277
*535 net278
*536 net279
*537 net28
*538 net280
*539 net281
*540 net282
*541 net283
*542 net284
*543 net285
*544 net286
*545 net287
*546 net288
*547 net289
*548 net29
*549 net290
*550 net291
*551 net292
*552 net293
*553 net294
*554 net295
*555 net296
*556 net297
*557 net298
*558 net299
*559 net3
*560 net30
*561 net300
*562 net301
*563 net302
*564 net303
*565 net304
*566 net305
*567 net306
*568 net307
*569 net308
*570 net309
*571 net31
*572 net310
*573 net311
*574 net312
*575 net313
*576 net314
*577 net315
*578 net316
*579 net317
*580 net318
*581 net319
*582 net32
*583 net320
*584 net321
*585 net322
*586 net323
*587 net324
*588 net325
*589 net326
*590 net327
*591 net328
*592 net329
*593 net33
*594 net330
*595 net331
*596 net332
*597 net333
*598 net334
*599 net335
*600 net336
*601 net337
*602 net338
*603 net339
*604 net34
*605 net340
*606 net341
*607 net342
*608 net343
*609 net344
*610 net345
*611 net346
*612 net347
*613 net348
*614 net349
*615 net35
*616 net350
*617 net351
*618 net352
*619 net353
*620 net354
*621 net355
*622 net356
*623 net357
*624 net358
*625 net359
*626 net36
*627 net360
*628 net361
*629 net362
*630 net363
*631 net364
*632 net365
*633 net366
*634 net367
*635 net368
*636 net369
*637 net37
*638 net370
*639 net371
*640 net372
*641 net373
*642 net374
*643 net375
*644 net376
*645 net377
*646 net378
*647 net379
*648 net38
*649 net380
*650 net381
*651 net382
*652 net383
*653 net384
*654 net385
*655 net386
*656 net387
*657 net388
*658 net389
*659 net39
*660 net390
*661 net391
*662 net392
*663 net393
*664 net394
*665 net395
*666 net396
*667 net397
*668 net398
*669 net399
*670 net4
*671 net40
*672 net400
*673 net401
*674 net402
*675 net403
*676 net404
*677 net405
*678 net406
*679 net407
*680 net408
*681 net409
*682 net41
*683 net410
*684 net411
*685 net412
*686 net413
*687 net414
*688 net415
*689 net416
*690 net417
*691 net418
*692 net419
*693 net42
*694 net420
*695 net421
*696 net422
*697 net423
*698 net424
*699 net425
*700 net426
*701 net427
*702 net428
*703 net429
*704 net43
*705 net430
*706 net431
*707 net432
*708 net433
*709 net434
*710 net435
*711 net436
*712 net437
*713 net438
*714 net439
*715 net44
*716 net440
*717 net441
*718 net442
*719 net443
*720 net444
*721 net445
*722 net446
*723 net447
*724 net448
*725 net449
*726 net45
*727 net450
*728 net451
*729 net452
*730 net453
*731 net454
*732 net455
*733 net456
*734 net457
*735 net458
*736 net459
*737 net46
*738 net460
*739 net461
*740 net462
*741 net463
*742 net464
*743 net465
*744 net466
*745 net467
*746 net468
*747 net469
*748 net47
*749 net470
*750 net471
*751 net472
*752 net473
*753 net474
*754 net475
*755 net476
*756 net477
*757 net478
*758 net479
*759 net48
*760 net480
*761 net481
*762 net482
*763 net483
*764 net484
*765 net485
*766 net486
*767 net487
*768 net488
*769 net489
*770 net49
*771 net490
*772 net491
*773 net492
*774 net493
*775 net494
*776 net495
*777 net496
*778 net497
*779 net498
*780 net499
*781 net5
*782 net50
*783 net500
*784 net501
*785 net502
*786 net503
*787 net504
*788 net505
*789 net506
*790 net507
*791 net508
*792 net509
*793 net51
*794 net510
*795 net511
*796 net512
*797 net513
*798 net514
*799 net515
*800 net516
*801 net517
*802 net518
*803 net519
*804 net52
*805 net520
*806 net521
*807 net522
*808 net523
*809 net524
*810 net525
*811 net526
*812 net527
*813 net528
*814 net529
*815 net53
*816 net530
*817 net531
*818 net532
*819 net533
*820 net534
*821 net535
*822 net536
*823 net537
*824 net538
*825 net539
*826 net54
*827 net540
*828 net541
*829 net542
*830 net543
*831 net544
*832 net545
*833 net546
*834 net547
*835 net548
*836 net549
*837 net55
*838 net550
*839 net551
*840 net552
*841 net553
*842 net554
*843 net555
*844 net556
*845 net557
*846 net558
*847 net559
*848 net56
*849 net560
*850 net561
*851 net562
*852 net563
*853 net564
*854 net565
*855 net566
*856 net567
*857 net568
*858 net569
*859 net57
*860 net570
*861 net571
*862 net572
*863 net573
*864 net574
*865 net575
*866 net576
*867 net577
*868 net578
*869 net579
*870 net58
*871 net580
*872 net581
*873 net582
*874 net583
*875 net584
*876 net585
*877 net586
*878 net587
*879 net588
*880 net589
*881 net59
*882 net590
*883 net591
*884 net592
*885 net593
*886 net594
*887 net595
*888 net596
*889 net597
*890 net598
*891 net599
*892 net6
*893 net60
*894 net600
*895 net601
*896 net602
*897 net603
*898 net604
*899 net605
*900 net606
*901 net607
*902 net608
*903 net609
*904 net61
*905 net610
*906 net611
*907 net612
*908 net613
*909 net614
*910 net615
*911 net616
*912 net617
*913 net618
*914 net619
*915 net62
*916 net620
*917 net621
*918 net622
*919 net623
*920 net624
*921 net625
*922 net626
*923 net627
*924 net628
*925 net629
*926 net63
*927 net630
*928 net631
*929 net632
*930 net633
*931 net634
*932 net635
*933 net636
*934 net637
*935 net638
*936 net639
*937 net64
*938 net640
*939 net641
*940 net642
*941 net643
*942 net644
*943 net645
*944 net646
*945 net647
*946 net648
*947 net649
*948 net65
*949 net650
*950 net651
*951 net652
*952 net653
*953 net654
*954 net655
*955 net656
*956 net657
*957 net658
*958 net659
*959 net66
*960 net660
*961 net661
*962 net662
*963 net663
*964 net664
*965 net665
*966 net666
*967 net667
*968 net668
*969 net669
*970 net67
*971 net670
*972 net671
*973 net672
*974 net673
*975 net674
*976 net675
*977 net676
*978 net677
*979 net678
*980 net679
*981 net68
*982 net680
*983 net681
*984 net682
*985 net683
*986 net684
*987 net685
*988 net686
*989 net687
*990 net688
*991 net689
*992 net69
*993 net690
*994 net691
*995 net692
*996 net693
*997 net694
*998 net695
*999 net696
*1000 net697
*1001 net698
*1002 net699
*1003 net7
*1004 net70
*1005 net700
*1006 net701
*1007 net702
*1008 net703
*1009 net704
*1010 net705
*1011 net706
*1012 net707
*1013 net708
*1014 net709
*1015 net71
*1016 net710
*1017 net711
*1018 net712
*1019 net713
*1020 net714
*1021 net715
*1022 net716
*1023 net717
*1024 net718
*1025 net719
*1026 net72
*1027 net720
*1028 net721
*1029 net722
*1030 net723
*1031 net724
*1032 net725
*1033 net726
*1034 net727
*1035 net728
*1036 net729
*1037 net73
*1038 net730
*1039 net731
*1040 net732
*1041 net733
*1042 net734
*1043 net735
*1044 net736
*1045 net737
*1046 net738
*1047 net739
*1048 net74
*1049 net740
*1050 net741
*1051 net742
*1052 net743
*1053 net744
*1054 net745
*1055 net746
*1056 net747
*1057 net748
*1058 net749
*1059 net75
*1060 net750
*1061 net751
*1062 net752
*1063 net753
*1064 net754
*1065 net755
*1066 net756
*1067 net757
*1068 net758
*1069 net759
*1070 net76
*1071 net760
*1072 net761
*1073 net762
*1074 net763
*1075 net764
*1076 net765
*1077 net766
*1078 net767
*1079 net768
*1080 net769
*1081 net77
*1082 net770
*1083 net771
*1084 net772
*1085 net773
*1086 net774
*1087 net775
*1088 net776
*1089 net777
*1090 net778
*1091 net779
*1092 net78
*1093 net780
*1094 net781
*1095 net782
*1096 net783
*1097 net784
*1098 net785
*1099 net786
*1100 net787
*1101 net788
*1102 net789
*1103 net79
*1104 net790
*1105 net791
*1106 net792
*1107 net793
*1108 net794
*1109 net795
*1110 net796
*1111 net797
*1112 net798
*1113 net799
*1114 net8
*1115 net80
*1116 net800
*1117 net801
*1118 net802
*1119 net803
*1120 net804
*1121 net805
*1122 net806
*1123 net807
*1124 net808
*1125 net809
*1126 net81
*1127 net810
*1128 net811
*1129 net812
*1130 net813
*1131 net814
*1132 net815
*1133 net816
*1134 net817
*1135 net818
*1136 net819
*1137 net82
*1138 net820
*1139 net821
*1140 net822
*1141 net823
*1142 net824
*1143 net825
*1144 net826
*1145 net827
*1146 net828
*1147 net829
*1148 net83
*1149 net830
*1150 net831
*1151 net832
*1152 net833
*1153 net834
*1154 net835
*1155 net836
*1156 net837
*1157 net838
*1158 net839
*1159 net84
*1160 net840
*1161 net841
*1162 net842
*1163 net843
*1164 net844
*1165 net845
*1166 net846
*1167 net847
*1168 net848
*1169 net849
*1170 net85
*1171 net850
*1172 net851
*1173 net852
*1174 net853
*1175 net854
*1176 net855
*1177 net856
*1178 net857
*1179 net858
*1180 net859
*1181 net86
*1182 net860
*1183 net861
*1184 net862
*1185 net863
*1186 net864
*1187 net865
*1188 net866
*1189 net867
*1190 net868
*1191 net869
*1192 net87
*1193 net870
*1194 net871
*1195 net872
*1196 net873
*1197 net874
*1198 net875
*1199 net876
*1200 net877
*1201 net878
*1202 net879
*1203 net88
*1204 net880
*1205 net881
*1206 net882
*1207 net883
*1208 net884
*1209 net885
*1210 net886
*1211 net887
*1212 net888
*1213 net889
*1214 net89
*1215 net890
*1216 net891
*1217 net892
*1218 net893
*1219 net894
*1220 net895
*1221 net896
*1222 net897
*1223 net898
*1224 net899
*1225 net9
*1226 net90
*1227 net900
*1228 net901
*1229 net902
*1230 net903
*1231 net904
*1232 net905
*1233 net906
*1234 net907
*1235 net908
*1236 net909
*1237 net91
*1238 net910
*1239 net911
*1240 net912
*1241 net913
*1242 net914
*1243 net915
*1244 net916
*1245 net917
*1246 net918
*1247 net919
*1248 net92
*1249 net920
*1250 net921
*1251 net922
*1252 net923
*1253 net924
*1254 net925
*1255 net926
*1256 net927
*1257 net928
*1258 net929
*1259 net93
*1260 net930
*1261 net931
*1262 net932
*1263 net933
*1264 net934
*1265 net935
*1266 net936
*1267 net937
*1268 net938
*1269 net939
*1270 net94
*1271 net940
*1272 net941
*1273 net942
*1274 net943
*1275 net944
*1276 net945
*1277 net946
*1278 net947
*1279 net948
*1280 net949
*1281 net95
*1282 net950
*1283 net951
*1284 net952
*1285 net953
*1286 net954
*1287 net955
*1288 net956
*1289 net957
*1290 net958
*1291 net959
*1292 net96
*1293 net960
*1294 net961
*1295 net962
*1296 net963
*1297 net964
*1298 net965
*1299 net966
*1300 net967
*1301 net968
*1302 net969
*1303 net97
*1304 net970
*1305 net98
*1306 net99
*1307 ANTENNA_c102_CLK_N
*1308 ANTENNA_c106_CLK
*1309 ANTENNA_c121_CLK_N
*1310 ANTENNA_c122_CLK
*1311 ANTENNA_c123_CLK_N
*1312 ANTENNA_c124_CLK
*1313 ANTENNA_c176_Y
*1314 ANTENNA_c177_A
*1315 ANTENNA_c178_B_N
*1316 ANTENNA_c179_B
*1317 ANTENNA_c182_C_N
*1318 ANTENNA_c186_B
*1319 ANTENNA_c187_A
*1320 ANTENNA_c189_A0
*1321 ANTENNA_c191_CLK
*1322 ANTENNA_c191_SCD
*1323 ANTENNA_c192_CLK_N
*1324 ANTENNA_c194_CLK
*1325 ANTENNA_c195_S0
*1326 ANTENNA_c211_CLK
*1327 ANTENNA_c236_CLK_N
*1328 ANTENNA_c236_SCD
*1329 ANTENNA_c239_CLK
*1330 ANTENNA_c251_CLK
*1331 ANTENNA_c256_X
*1332 ANTENNA_c257_S1
*1333 ANTENNA_c258_A1
*1334 ANTENNA_c259_A1
*1335 ANTENNA_c260_A0
*1336 ANTENNA_c261_A3
*1337 ANTENNA_c275_CLK
*1338 ANTENNA_c278_CLK
*1339 ANTENNA_c279_CLK_N
*1340 ANTENNA_c281_CLK
*1341 ANTENNA_c292_D_N
*1342 ANTENNA_c293_C
*1343 ANTENNA_c294_C_N
*1344 ANTENNA_c296_D_N
*1345 ANTENNA_c298_A3
*1346 ANTENNA_c299_B
*1347 ANTENNA_c300_A1
*1348 ANTENNA_c305_A1
*1349 ANTENNA_c308_A_N
*1350 ANTENNA_c321_CLK
*1351 ANTENNA_c322_CLK_N
*1352 ANTENNA_c361_CLK
*1353 ANTENNA_c368_CLK
*1354 ANTENNA_c382_A
*1355 ANTENNA_c383_B
*1356 ANTENNA_c387_CLK_N
*1357 ANTENNA_c388_D_N
*1358 ANTENNA_c389_A0
*1359 ANTENNA_c390_B1
*1360 ANTENNA_c393_A0
*1361 ANTENNA_c394_S0
*1362 ANTENNA_c417_CLK
*1363 ANTENNA_c423_A
*1364 ANTENNA_c479_CLK_N
*1365 ANTENNA_c538_CLK_N
*1366 ANTENNA_c540_CLK_N
*1367 ANTENNA_c66_B
*1368 ANTENNA_c670_CLK_N
*1369 ANTENNA_c674_CLK
*1370 ANTENNA_c727_B
*1371 ANTENNA_c78_CLK
*1372 ANTENNA_c81_CLK
*1373 ANTENNA_c82_CLK
*1374 ANTENNA_c83_CLK_N
*1375 ANTENNA_c97_CLK_N
*1376 ANTENNA_c98_CLK
*1377 ANTENNA_c99_CLK
*1378 ANTENNA_clkbuf_0_clk_A
*1379 ANTENNA_clkbuf_0_clk_X
*1380 ANTENNA_clkbuf_1_0__f_net877_X
*1381 ANTENNA_clkbuf_1_1__f_net345_X
*1382 ANTENNA_clkbuf_4_0_0_clk_A
*1383 ANTENNA_clkbuf_4_0_0_clk_X
*1384 ANTENNA_clkbuf_4_10_0_clk_A
*1385 ANTENNA_clkbuf_4_11_0_clk_A
*1386 ANTENNA_clkbuf_4_12_0_clk_A
*1387 ANTENNA_clkbuf_4_13_0_clk_A
*1388 ANTENNA_clkbuf_4_13_0_clk_X
*1389 ANTENNA_clkbuf_4_14_0_clk_A
*1390 ANTENNA_clkbuf_4_14_0_clk_X
*1391 ANTENNA_clkbuf_4_15_0_clk_A
*1392 ANTENNA_clkbuf_4_1_0_clk_A
*1393 ANTENNA_clkbuf_4_1_0_clk_X
*1394 ANTENNA_clkbuf_4_2_0_clk_A
*1395 ANTENNA_clkbuf_4_3_0_clk_A
*1396 ANTENNA_clkbuf_4_3_0_clk_X
*1397 ANTENNA_clkbuf_4_4_0_clk_A
*1398 ANTENNA_clkbuf_4_4_0_clk_X
*1399 ANTENNA_clkbuf_4_5_0_clk_A
*1400 ANTENNA_clkbuf_4_6_0_clk_A
*1401 ANTENNA_clkbuf_4_6_0_clk_X
*1402 ANTENNA_clkbuf_4_7_0_clk_A
*1403 ANTENNA_clkbuf_4_7_0_clk_X
*1404 ANTENNA_clkbuf_4_8_0_clk_A
*1405 ANTENNA_clkbuf_4_9_0_clk_A
*1406 ANTENNA_clkbuf_4_9_0_clk_X
*1407 ANTENNA_fanout102_X
*1408 ANTENNA_input10_A
*1409 ANTENNA_input11_A
*1410 ANTENNA_input12_A
*1411 ANTENNA_input13_A
*1412 ANTENNA_input14_A
*1413 ANTENNA_input15_A
*1414 ANTENNA_input16_A
*1415 ANTENNA_input17_A
*1416 ANTENNA_input18_A
*1417 ANTENNA_input19_A
*1418 ANTENNA_input1_A
*1419 ANTENNA_input20_A
*1420 ANTENNA_input21_A
*1421 ANTENNA_input22_A
*1422 ANTENNA_input23_A
*1423 ANTENNA_input24_A
*1424 ANTENNA_input25_A
*1425 ANTENNA_input26_A
*1426 ANTENNA_input27_A
*1427 ANTENNA_input28_A
*1428 ANTENNA_input29_A
*1429 ANTENNA_input2_A
*1430 ANTENNA_input30_A
*1431 ANTENNA_input31_A
*1432 ANTENNA_input32_A
*1433 ANTENNA_input33_A
*1434 ANTENNA_input34_A
*1435 ANTENNA_input35_A
*1436 ANTENNA_input36_A
*1437 ANTENNA_input37_A
*1438 ANTENNA_input38_A
*1439 ANTENNA_input39_A
*1440 ANTENNA_input3_A
*1441 ANTENNA_input40_A
*1442 ANTENNA_input41_A
*1443 ANTENNA_input41_X
*1444 ANTENNA_input42_A
*1445 ANTENNA_input43_A
*1446 ANTENNA_input44_A
*1447 ANTENNA_input45_A
*1448 ANTENNA_input46_A
*1449 ANTENNA_input47_A
*1450 ANTENNA_input48_A
*1451 ANTENNA_input49_A
*1452 ANTENNA_input4_A
*1453 ANTENNA_input50_A
*1454 ANTENNA_input51_A
*1455 ANTENNA_input52_A
*1456 ANTENNA_input5_A
*1457 ANTENNA_input6_A
*1458 ANTENNA_input7_A
*1459 ANTENNA_input8_A
*1460 ANTENNA_input9_A
*1461 ANTENNA_merge763_CLK
*1462 ANTENNA_merge766_CLK
*1463 ANTENNA_merge766_SCD
*1464 ANTENNA_merge767_CLK
*1465 ANTENNA_merge771_RESET_B
*1466 ANTENNA_merge776_SET_B
*1467 ANTENNA_merge778_CLK_N
*1468 ANTENNA_merge780_CLK
*1469 ANTENNA_merge781_CLK
*1470 ANTENNA_merge782_CLK
*1471 ANTENNA_merge783_CLK_N
*1472 ANTENNA_merge783_SCD
*1473 ANTENNA_merge786_CLK
*1474 ANTENNA_output59_A
*1475 ANTENNA_s793_CLK
*1476 ANTENNA_s794_CLK
*1477 ANTENNA_s795_CLK
*1478 ANTENNA_s796_CLK
*1479 ANTENNA_s797_CLK
*1480 ANTENNA_s798_CLK
*1481 ANTENNA_s803_GATE_N
*1482 ANTENNA_s804_GATE_N
*1483 ANTENNA_s805_GATE_N
*1484 ANTENNA_s806_GATE
*1485 ANTENNA_s807_SLEEP_B
*1486 ANTENNA_s808_CLK
*1487 ANTENNA_s809_CLK
*1488 ANTENNA_s810_CLK
*1489 ANTENNA_s813_CLK
*1490 ANTENNA_s814_CLK
*1491 ANTENNA_s815_CLK
*1492 ANTENNA_s816_GATE_N
*1493 ANTENNA_s817_GATE_N
*1494 ANTENNA_s818_GATE
*1495 ANTENNA_s819_GATE_N
*1496 ANTENNA_s820_GATE_N
*1497 ANTENNA_s821_GATE_N
*1498 ANTENNA_s822_GATE
*1499 ANTENNA_s823_SLEEP_B
*1500 ANTENNA_s824_CLK
*1501 ANTENNA_s825_CLK
*1502 ANTENNA_s826_CLK
*1503 ANTENNA_s832_GATE_N
*1504 ANTENNA_s833_GATE_N
*1505 ANTENNA_s834_GATE
*1506 ANTENNA_s835_GATE_N
*1507 ANTENNA_s836_GATE_N
*1508 ANTENNA_s837_GATE_N
*1509 ANTENNA_s838_GATE
*1510 ANTENNA_s839_SLEEP_B
*1511 ANTENNA_s840_CLK
*1512 ANTENNA_s841_CLK
*1513 ANTENNA_s842_CLK
*1514 ANTENNA_s843_CLK
*1515 ANTENNA_s844_CLK
*1516 ANTENNA_s845_CLK
*1517 ANTENNA_s846_CLK
*1518 ANTENNA_s849_GATE_N
*1519 ANTENNA_s850_GATE
*1520 ANTENNA_s851_GATE_N
*1521 ANTENNA_s852_Q
*1522 ANTENNA_s868_GATE_N
*1523 ANTENNA_s869_GATE_N
*1524 ANTENNA_s874_CLK
*1525 FILLER_0_0_109
*1526 FILLER_0_0_113
*1527 FILLER_0_0_125
*1528 FILLER_0_0_137
*1529 FILLER_0_0_141
*1530 FILLER_0_0_15
*1531 FILLER_0_0_153
*1532 FILLER_0_0_165
*1533 FILLER_0_0_169
*1534 FILLER_0_0_181
*1535 FILLER_0_0_193
*1536 FILLER_0_0_197
*1537 FILLER_0_0_209
*1538 FILLER_0_0_221
*1539 FILLER_0_0_225
*1540 FILLER_0_0_237
*1541 FILLER_0_0_249
*1542 FILLER_0_0_253
*1543 FILLER_0_0_265
*1544 FILLER_0_0_27
*1545 FILLER_0_0_277
*1546 FILLER_0_0_281
*1547 FILLER_0_0_29
*1548 FILLER_0_0_293
*1549 FILLER_0_0_3
*1550 FILLER_0_0_305
*1551 FILLER_0_0_309
*1552 FILLER_0_0_321
*1553 FILLER_0_0_333
*1554 FILLER_0_0_337
*1555 FILLER_0_0_349
*1556 FILLER_0_0_361
*1557 FILLER_0_0_365
*1558 FILLER_0_0_377
*1559 FILLER_0_0_389
*1560 FILLER_0_0_393
*1561 FILLER_0_0_405
*1562 FILLER_0_0_41
*1563 FILLER_0_0_417
*1564 FILLER_0_0_421
*1565 FILLER_0_0_433
*1566 FILLER_0_0_445
*1567 FILLER_0_0_449
*1568 FILLER_0_0_461
*1569 FILLER_0_0_473
*1570 FILLER_0_0_477
*1571 FILLER_0_0_489
*1572 FILLER_0_0_501
*1573 FILLER_0_0_505
*1574 FILLER_0_0_517
*1575 FILLER_0_0_529
*1576 FILLER_0_0_53
*1577 FILLER_0_0_533
*1578 FILLER_0_0_545
*1579 FILLER_0_0_557
*1580 FILLER_0_0_561
*1581 FILLER_0_0_57
*1582 FILLER_0_0_573
*1583 FILLER_0_0_585
*1584 FILLER_0_0_589
*1585 FILLER_0_0_601
*1586 FILLER_0_0_613
*1587 FILLER_0_0_617
*1588 FILLER_0_0_69
*1589 FILLER_0_0_81
*1590 FILLER_0_0_85
*1591 FILLER_0_0_97
*1592 FILLER_0_100_109
*1593 FILLER_0_100_121
*1594 FILLER_0_100_133
*1595 FILLER_0_100_139
*1596 FILLER_0_100_141
*1597 FILLER_0_100_15
*1598 FILLER_0_100_161
*1599 FILLER_0_100_173
*1600 FILLER_0_100_185
*1601 FILLER_0_100_193
*1602 FILLER_0_100_197
*1603 FILLER_0_100_209
*1604 FILLER_0_100_221
*1605 FILLER_0_100_233
*1606 FILLER_0_100_245
*1607 FILLER_0_100_251
*1608 FILLER_0_100_253
*1609 FILLER_0_100_265
*1610 FILLER_0_100_27
*1611 FILLER_0_100_277
*1612 FILLER_0_100_289
*1613 FILLER_0_100_29
*1614 FILLER_0_100_3
*1615 FILLER_0_100_301
*1616 FILLER_0_100_307
*1617 FILLER_0_100_309
*1618 FILLER_0_100_321
*1619 FILLER_0_100_333
*1620 FILLER_0_100_345
*1621 FILLER_0_100_357
*1622 FILLER_0_100_363
*1623 FILLER_0_100_365
*1624 FILLER_0_100_377
*1625 FILLER_0_100_389
*1626 FILLER_0_100_401
*1627 FILLER_0_100_41
*1628 FILLER_0_100_413
*1629 FILLER_0_100_419
*1630 FILLER_0_100_421
*1631 FILLER_0_100_433
*1632 FILLER_0_100_445
*1633 FILLER_0_100_457
*1634 FILLER_0_100_469
*1635 FILLER_0_100_475
*1636 FILLER_0_100_477
*1637 FILLER_0_100_489
*1638 FILLER_0_100_501
*1639 FILLER_0_100_513
*1640 FILLER_0_100_525
*1641 FILLER_0_100_53
*1642 FILLER_0_100_531
*1643 FILLER_0_100_533
*1644 FILLER_0_100_545
*1645 FILLER_0_100_557
*1646 FILLER_0_100_569
*1647 FILLER_0_100_581
*1648 FILLER_0_100_587
*1649 FILLER_0_100_589
*1650 FILLER_0_100_601
*1651 FILLER_0_100_613
*1652 FILLER_0_100_65
*1653 FILLER_0_100_77
*1654 FILLER_0_100_83
*1655 FILLER_0_100_85
*1656 FILLER_0_100_97
*1657 FILLER_0_101_105
*1658 FILLER_0_101_118
*1659 FILLER_0_101_125
*1660 FILLER_0_101_132
*1661 FILLER_0_101_146
*1662 FILLER_0_101_15
*1663 FILLER_0_101_153
*1664 FILLER_0_101_161
*1665 FILLER_0_101_167
*1666 FILLER_0_101_174
*1667 FILLER_0_101_181
*1668 FILLER_0_101_193
*1669 FILLER_0_101_197
*1670 FILLER_0_101_209
*1671 FILLER_0_101_221
*1672 FILLER_0_101_225
*1673 FILLER_0_101_237
*1674 FILLER_0_101_249
*1675 FILLER_0_101_253
*1676 FILLER_0_101_265
*1677 FILLER_0_101_27
*1678 FILLER_0_101_277
*1679 FILLER_0_101_281
*1680 FILLER_0_101_29
*1681 FILLER_0_101_293
*1682 FILLER_0_101_3
*1683 FILLER_0_101_305
*1684 FILLER_0_101_309
*1685 FILLER_0_101_321
*1686 FILLER_0_101_333
*1687 FILLER_0_101_337
*1688 FILLER_0_101_349
*1689 FILLER_0_101_361
*1690 FILLER_0_101_365
*1691 FILLER_0_101_377
*1692 FILLER_0_101_389
*1693 FILLER_0_101_393
*1694 FILLER_0_101_405
*1695 FILLER_0_101_41
*1696 FILLER_0_101_413
*1697 FILLER_0_101_419
*1698 FILLER_0_101_421
*1699 FILLER_0_101_433
*1700 FILLER_0_101_445
*1701 FILLER_0_101_449
*1702 FILLER_0_101_461
*1703 FILLER_0_101_473
*1704 FILLER_0_101_477
*1705 FILLER_0_101_489
*1706 FILLER_0_101_501
*1707 FILLER_0_101_505
*1708 FILLER_0_101_517
*1709 FILLER_0_101_529
*1710 FILLER_0_101_53
*1711 FILLER_0_101_533
*1712 FILLER_0_101_545
*1713 FILLER_0_101_557
*1714 FILLER_0_101_561
*1715 FILLER_0_101_57
*1716 FILLER_0_101_573
*1717 FILLER_0_101_585
*1718 FILLER_0_101_589
*1719 FILLER_0_101_601
*1720 FILLER_0_101_613
*1721 FILLER_0_101_617
*1722 FILLER_0_101_69
*1723 FILLER_0_101_81
*1724 FILLER_0_101_85
*1725 FILLER_0_101_97
*1726 FILLER_0_10_109
*1727 FILLER_0_10_121
*1728 FILLER_0_10_133
*1729 FILLER_0_10_139
*1730 FILLER_0_10_141
*1731 FILLER_0_10_15
*1732 FILLER_0_10_153
*1733 FILLER_0_10_165
*1734 FILLER_0_10_177
*1735 FILLER_0_10_189
*1736 FILLER_0_10_195
*1737 FILLER_0_10_197
*1738 FILLER_0_10_209
*1739 FILLER_0_10_221
*1740 FILLER_0_10_233
*1741 FILLER_0_10_245
*1742 FILLER_0_10_251
*1743 FILLER_0_10_253
*1744 FILLER_0_10_265
*1745 FILLER_0_10_27
*1746 FILLER_0_10_277
*1747 FILLER_0_10_289
*1748 FILLER_0_10_29
*1749 FILLER_0_10_3
*1750 FILLER_0_10_301
*1751 FILLER_0_10_307
*1752 FILLER_0_10_309
*1753 FILLER_0_10_321
*1754 FILLER_0_10_333
*1755 FILLER_0_10_345
*1756 FILLER_0_10_357
*1757 FILLER_0_10_363
*1758 FILLER_0_10_365
*1759 FILLER_0_10_377
*1760 FILLER_0_10_389
*1761 FILLER_0_10_401
*1762 FILLER_0_10_41
*1763 FILLER_0_10_413
*1764 FILLER_0_10_419
*1765 FILLER_0_10_421
*1766 FILLER_0_10_433
*1767 FILLER_0_10_445
*1768 FILLER_0_10_457
*1769 FILLER_0_10_469
*1770 FILLER_0_10_475
*1771 FILLER_0_10_477
*1772 FILLER_0_10_489